*Heading
** Job name: curvedsurface Model name: Model-1
** Generated by: Abaqus/CAE 2020
*Preprint, echo=NO, model=NO, history=NO, contact=NO
**
** PARTS
**
*Part, name=Part-1
*Node
      1,  -5.74456263,         -16.,           1.
      2,  -5.74456263,         -16.,          0.5
      3,          -8.,         -16.,          0.5
      4,          -8.,         -16.,           1.
      5,          -4.,  -14.2554369,          0.5
      6,          -4.,  -14.2554369,           1.
      7,          -4.,         -12.,          0.5
      8,          -8.,         -12.,          0.5
      9,          -4.,         -12.,           1.
     10,          -8.,         -12.,           1.
     11,         -12.,         -16.,          0.5
     12,         -12.,         -16.,           1.
     13,         -12.,         -12.,          0.5
     14,         -12.,         -12.,           1.
     15,         -16.,         -16.,          0.5
     16,         -16.,         -16.,           1.
     17,         -16.,         -12.,          0.5
     18,         -16.,         -12.,           1.
     19,         -20.,         -16.,          0.5
     20,         -20.,         -16.,           1.
** ... 7365 like lines cut
*Element, type=C3D8H
 1, 2470,  378, 2463, 5907,  376,    1,  377, 2462
 2, 2471,  379, 2464, 5906, 2470,  378, 2463, 5907
 3, 2474,  383, 2470, 5907,  382,    2,  376, 2462
 4, 2475,  384, 2471, 5906, 2474,  383, 2470, 5907
 5, 2481,  390, 2474, 5907,  387,    3,  382, 2462
 6, 2482,  389, 2475, 5906, 2481,  390, 2474, 5907
 7, 2463,  393, 2481, 5907,  377,    4,  387, 2462
 8, 2464,  392, 2482, 5906, 2463,  393, 2481, 5907
 9, 2475, 2476, 5909, 5906,  384,  385, 2472, 2471
10, 2476, 2477, 5908, 5909,  385,  386, 2473, 2472
11, 2477,  395, 2484, 5908,  386,    5,  394, 2473
12, 2484,  397, 2465, 5908,  394,    6,  381, 2473
13, 5908, 2465, 2466, 5909, 2473,  381,  380, 2472
14, 5909, 2466, 2464, 5906, 2472,  380,  379, 2471
15, 2486, 2487, 5911, 5910,  401,  400, 2479, 2478
16, 2487, 2488, 5912, 5911,  400,  399, 2480, 2479
17, 2488,  402, 2485, 5912,  399,    7,  396, 2480
18, 5910, 5911, 5909, 5906, 2478, 2479, 2476, 2475
19, 5911, 5912, 5908, 5909, 2479, 2480, 2477, 2476
20, 5912, 2485, 2484, 5908, 2480,  396,  395, 2477
** ... 5452 like lines cut
*Nset, nset=Set-A
 39,
*Nset, nset=Set-B
 63,
*Nset, nset=Set-C
 372,
*Nset, nset=Set-D
 356,
*Elset, elset=Set-0, generate
 335,  366,    1
*Elset, elset=Set-1, generate
 127,  158,    1
*Elset, elset=Set-2, generate
 1337,  1368,     1
*Elset, elset=Set-3, generate
 2083,  2098,     1
*Elset, elset=Set-6, generate
 3721,  3736,     1
*Elset, elset=Set-7, generate
 3945,  3976,     1
*Elset, elset=Set-8, generate
 4741,  4772,     1
*Elset, elset=Set-9, generate
 5169,  5200,     1
*Elset, elset=Set-10, generate
 367,  398,    1
*Elset, elset=Set-11, generate
 159,  190,    1
*Elset, elset=Set-12, generate
 1305,  1336,     1
*Elset, elset=Set-13, generate
 2163,  2192,     1
*Elset, elset=Set-14, generate
 2385,  2408,     1
*Elset, elset=Set-15, generate
 2865,  2888,     1
*Elset, elset=Set-16, generate
 3313,  3342,     1
*Elset, elset=Set-17, generate
 3913,  3944,     1
*Elset, elset=Set-18, generate
 4709,  4740,     1
*Elset, elset=Set-19, generate
 5137,  5168,     1
*Elset, elset=Set-20, generate
 399,  430,    1
*Elset, elset=Set-21, generate
** ... 329 like lines cut
** Section: Section-2
*Solid Section, elset=Set-131, material=Material-passive
,
** Section: Section-2
*Solid Section, elset=Set-121, material=Material-passive
,
** Section: Section-1
*Solid Section, elset=Set-111, material=Material-active
,
** Section: Section-1
*Solid Section, elset=Set-101, material=Material-active
,
** Section: Section-1
*Solid Section, elset=Set-1, material=Material-active
,
** Section: Section-2
*Solid Section, elset=Set-11, material=Material-passive
,
** Section: Section-1
*Solid Section, elset=Set-21, material=Material-active
,
** Section: Section-1
*Solid Section, elset=Set-130, material=Material-active
,
** Section: Section-2
*Solid Section, elset=Set-120, material=Material-passive
,
** Section: Section-1
*Solid Section, elset=Set-110, material=Material-active
,
** Section: Section-2
*Solid Section, elset=Set-100, material=Material-passive
,
** Section: Section-1
*Solid Section, elset=Set-0, material=Material-active
,
** Section: Section-2
*Solid Section, elset=Set-10, material=Material-passive
,
** Section: Section-1
*Solid Section, elset=Set-20, material=Material-active
,
** Section: Section-1
*Solid Section, elset=Set-31, material=Material-active
,
** Section: Section-2
*Solid Section, elset=Set-170, material=Material-passive
,
** Section: Section-1
*Solid Section, elset=Set-180, material=Material-active
,
** Section: Section-2
*Solid Section, elset=Set-190, material=Material-passive
,
** Section: Section-1
*Solid Section, elset=Set-80, material=Material-active
,
** Section: Section-1
*Solid Section, elset=Set-70, material=Material-active
,
** Section: Section-1
*Solid Section, elset=Set-60, material=Material-active
,
** Section: Section-2
*Solid Section, elset=Set-160, material=Material-passive
,
** Section: Section-2
*Solid Section, elset=Set-171, material=Material-passive
,
** Section: Section-2
*Solid Section, elset=Set-181, material=Material-passive
,
** Section: Section-2
*Solid Section, elset=Set-191, material=Material-passive
,
** Section: Section-1
*Solid Section, elset=Set-81, material=Material-active
,
** Section: Section-1
*Solid Section, elset=Set-71, material=Material-active
,
** Section: Section-1
*Solid Section, elset=Set-61, material=Material-active
,
** Section: Section-2
*Solid Section, elset=Set-161, material=Material-passive
,
** Section: Section-1
*Solid Section, elset=Set-90, material=Material-active
,
** Section: Section-2
*Solid Section, elset=Set-91, material=Material-passive
,
** Section: Section-2
*Solid Section, elset=Set-51, material=Material-passive
,
** Section: Section-1
*Solid Section, elset=Set-41, material=Material-active
,
** Section: Section-1
*Solid Section, elset=Set-30, material=Material-active
,
** Section: Section-1
*Solid Section, elset=Set-141, material=Material-active
,
** Section: Section-1
*Solid Section, elset=Set-151, material=Material-active
,
** Section: Section-1
*Solid Section, elset=Set-92, material=Material-active
,
** Section: Section-1
*Solid Section, elset=Set-82, material=Material-active
,
** Section: Section-1
*Solid Section, elset=Set-72, material=Material-active
,
** Section: Section-1
*Solid Section, elset=Set-62, material=Material-active
,
** Section: Section-1
*Solid Section, elset=Set-52, material=Material-active
,
** Section: Section-1
*Solid Section, elset=Set-42, material=Material-active
,
** Section: Section-2
*Solid Section, elset=Set-32, material=Material-passive
,
** Section: Section-1
*Solid Section, elset=Set-22, material=Material-active
,
** Section: Section-2
*Solid Section, elset=Set-12, material=Material-passive
,
** Section: Section-1
*Solid Section, elset=Set-2, material=Material-active
,
** Section: Section-1
*Solid Section, elset=Set-112, material=Material-active
,
** Section: Section-1
*Solid Section, elset=Set-122, material=Material-active
,
** Section: Section-2
*Solid Section, elset=Set-132, material=Material-passive
,
** Section: Section-2
*Solid Section, elset=Set-142, material=Material-passive
,
** Section: Section-2
*Solid Section, elset=Set-152, material=Material-passive
,
** Section: Section-2
*Solid Section, elset=Set-162, material=Material-passive
,
** Section: Section-2
*Solid Section, elset=Set-172, material=Material-passive
,
** Section: Section-2
*Solid Section, elset=Set-182, material=Material-passive
,
** Section: Section-2
*Solid Section, elset=Set-192, material=Material-passive
,
** Section: Section-2
*Solid Section, elset=Set-102, material=Material-passive
,
** Section: Section-2
*Solid Section, elset=Set-103, material=Material-passive
,
** Section: Section-2
*Solid Section, elset=Set-143, material=Material-passive
,
** Section: Section-2
*Solid Section, elset=Set-153, material=Material-passive
,
** Section: Section-2
*Solid Section, elset=Set-163, material=Material-passive
,
** Section: Section-2
*Solid Section, elset=Set-173, material=Material-passive
,
** Section: Section-2
*Solid Section, elset=Set-183, material=Material-passive
,
** Section: Section-2
*Solid Section, elset=Set-193, material=Material-passive
,
** Section: Section-1
*Solid Section, elset=Set-93, material=Material-active
,
** Section: Section-1
*Solid Section, elset=Set-83, material=Material-active
,
** Section: Section-1
*Solid Section, elset=Set-73, material=Material-active
,
** Section: Section-1
*Solid Section, elset=Set-63, material=Material-active
,
** Section: Section-1
*Solid Section, elset=Set-43, material=Material-active
,
** Section: Section-1
*Solid Section, elset=Set-133, material=Material-active
,
** Section: Section-1
*Solid Section, elset=Set-113, material=Material-active
,
** Section: Section-2
*Solid Section, elset=Set-3, material=Material-passive
,
** Section: Section-2
*Solid Section, elset=Set-33, material=Material-passive
,
** Section: Section-1
*Solid Section, elset=Set-123, material=Material-active
,
** Section: Section-1
*Solid Section, elset=Set-13, material=Material-active
,
** Section: Section-1
*Solid Section, elset=Set-23, material=Material-active
,
** Section: Section-1
*Solid Section, elset=Set-53, material=Material-active
,
** Section: Section-2
*Solid Section, elset=Set-54, material=Material-passive
,
** Section: Section-1
*Solid Section, elset=Set-44, material=Material-active
,
** Section: Section-2
*Solid Section, elset=Set-34, material=Material-passive
,
** Section: Section-2
*Solid Section, elset=Set-24, material=Material-passive
,
** Section: Section-1
*Solid Section, elset=Set-14, material=Material-active
,
** Section: Section-1
*Solid Section, elset=Set-114, material=Material-active
,
** Section: Section-2
*Solid Section, elset=Set-124, material=Material-passive
,
** Section: Section-2
*Solid Section, elset=Set-134, material=Material-passive
,
** Section: Section-2
*Solid Section, elset=Set-144, material=Material-passive
,
** Section: Section-2
*Solid Section, elset=Set-154, material=Material-passive
,
** Section: Section-2
*Solid Section, elset=Set-164, material=Material-passive
,
** Section: Section-1
*Solid Section, elset=Set-74, material=Material-active
,
** Section: Section-2
*Solid Section, elset=Set-174, material=Material-passive
,
** Section: Section-1
*Solid Section, elset=Set-84, material=Material-active
,
** Section: Section-2
*Solid Section, elset=Set-184, material=Material-passive
,
** Section: Section-1
*Solid Section, elset=Set-64, material=Material-active
,
** Section: Section-2
*Solid Section, elset=Set-65, material=Material-passive
,
** Section: Section-2
*Solid Section, elset=Set-55, material=Material-passive
,
** Section: Section-2
*Solid Section, elset=Set-35, material=Material-passive
,
** Section: Section-2
*Solid Section, elset=Set-25, material=Material-passive
,
** Section: Section-2
*Solid Section, elset=Set-15, material=Material-passive
,
** Section: Section-1
*Solid Section, elset=Set-115, material=Material-active
,
** Section: Section-1
*Solid Section, elset=Set-125, material=Material-active
,
** Section: Section-1
*Solid Section, elset=Set-135, material=Material-active
,
** Section: Section-2
*Solid Section, elset=Set-145, material=Material-passive
,
** Section: Section-2
*Solid Section, elset=Set-155, material=Material-passive
,
** Section: Section-2
*Solid Section, elset=Set-165, material=Material-passive
,
** Section: Section-1
*Solid Section, elset=Set-75, material=Material-active
,
** Section: Section-2
*Solid Section, elset=Set-175, material=Material-passive
,
** Section: Section-1
*Solid Section, elset=Set-85, material=Material-active
,
** Section: Section-2
*Solid Section, elset=Set-185, material=Material-passive
,
** Section: Section-2
*Solid Section, elset=Set-45, material=Material-passive
,
** Section: Section-2
*Solid Section, elset=Set-46, material=Material-passive
,
** Section: Section-2
*Solid Section, elset=Set-36, material=Material-passive
,
** Section: Section-2
*Solid Section, elset=Set-26, material=Material-passive
,
** Section: Section-2
*Solid Section, elset=Set-16, material=Material-passive
,
** Section: Section-1
*Solid Section, elset=Set-116, material=Material-active
,
** Section: Section-1
*Solid Section, elset=Set-126, material=Material-active
,
** Section: Section-1
*Solid Section, elset=Set-136, material=Material-active
,
** Section: Section-1
*Solid Section, elset=Set-146, material=Material-active
,
** Section: Section-1
*Solid Section, elset=Set-156, material=Material-active
,
** Section: Section-1
*Solid Section, elset=Set-166, material=Material-active
,
** Section: Section-2
*Solid Section, elset=Set-176, material=Material-passive
,
** Section: Section-2
*Solid Section, elset=Set-186, material=Material-passive
,
** Section: Section-2
*Solid Section, elset=Set-86, material=Material-passive
,
** Section: Section-1
*Solid Section, elset=Set-76, material=Material-active
,
** Section: Section-1
*Solid Section, elset=Set-66, material=Material-active
,
** Section: Section-2
*Solid Section, elset=Set-56, material=Material-passive
,
** Section: Section-2
*Solid Section, elset=Set-6, material=Material-passive
,
** Section: Section-1
*Solid Section, elset=Set-106, material=Material-active
,
** Section: Section-2
*Solid Section, elset=Set-196, material=Material-passive
,
** Section: Section-2
*Solid Section, elset=Set-96, material=Material-passive
,
** Section: Section-2
*Solid Section, elset=Set-57, material=Material-passive
,
** Section: Section-2
*Solid Section, elset=Set-47, material=Material-passive
,
** Section: Section-2
*Solid Section, elset=Set-37, material=Material-passive
,
** Section: Section-2
*Solid Section, elset=Set-27, material=Material-passive
,
** Section: Section-2
*Solid Section, elset=Set-17, material=Material-passive
,
** Section: Section-2
*Solid Section, elset=Set-7, material=Material-passive
,
** Section: Section-2
*Solid Section, elset=Set-107, material=Material-passive
,
** Section: Section-1
*Solid Section, elset=Set-117, material=Material-active
,
** Section: Section-1
*Solid Section, elset=Set-127, material=Material-active
,
** Section: Section-1
*Solid Section, elset=Set-137, material=Material-active
,
** Section: Section-1
*Solid Section, elset=Set-147, material=Material-active
,
** Section: Section-1
*Solid Section, elset=Set-157, material=Material-active
,
** Section: Section-1
*Solid Section, elset=Set-167, material=Material-active
,
** Section: Section-2
*Solid Section, elset=Set-187, material=Material-passive
,
** Section: Section-2
*Solid Section, elset=Set-197, material=Material-passive
,
** Section: Section-2
*Solid Section, elset=Set-97, material=Material-passive
,
** Section: Section-1
*Solid Section, elset=Set-87, material=Material-active
,
** Section: Section-1
*Solid Section, elset=Set-77, material=Material-active
,
** Section: Section-2
*Solid Section, elset=Set-67, material=Material-passive
,
** Section: Section-1
*Solid Section, elset=Set-177, material=Material-active
,
** Section: Section-1
*Solid Section, elset=Set-178, material=Material-active
,
** Section: Section-2
*Solid Section, elset=Set-188, material=Material-passive
,
** Section: Section-1
*Solid Section, elset=Set-198, material=Material-active
,
** Section: Section-1
*Solid Section, elset=Set-98, material=Material-active
,
** Section: Section-2
*Solid Section, elset=Set-88, material=Material-passive
,
** Section: Section-2
*Solid Section, elset=Set-78, material=Material-passive
,
** Section: Section-2
*Solid Section, elset=Set-68, material=Material-passive
,
** Section: Section-2
*Solid Section, elset=Set-38, material=Material-passive
,
** Section: Section-2
*Solid Section, elset=Set-28, material=Material-passive
,
** Section: Section-2
*Solid Section, elset=Set-18, material=Material-passive
,
** Section: Section-2
*Solid Section, elset=Set-8, material=Material-passive
,
** Section: Section-1
*Solid Section, elset=Set-108, material=Material-active
,
** Section: Section-1
*Solid Section, elset=Set-118, material=Material-active
,
** Section: Section-1
*Solid Section, elset=Set-138, material=Material-active
,
** Section: Section-2
*Solid Section, elset=Set-48, material=Material-passive
,
** Section: Section-2
*Solid Section, elset=Set-58, material=Material-passive
,
** Section: Section-1
*Solid Section, elset=Set-168, material=Material-active
,
** Section: Section-1
*Solid Section, elset=Set-148, material=Material-active
,
** Section: Section-1
*Solid Section, elset=Set-158, material=Material-active
,
** Section: Section-1
*Solid Section, elset=Set-129, material=Material-active
,
** Section: Section-2
*Solid Section, elset=Set-39, material=Material-passive
,
** Section: Section-2
*Solid Section, elset=Set-29, material=Material-passive
,
** Section: Section-2
*Solid Section, elset=Set-119, material=Material-passive
,
** Section: Section-1
*Solid Section, elset=Set-109, material=Material-active
,
** Section: Section-2
*Solid Section, elset=Set-19, material=Material-passive
,
** Section: Section-1
*Solid Section, elset=Set-9, material=Material-active
,
** Section: Section-1
*Solid Section, elset=Set-128, material=Material-active
,
** Section: Section-1
*Solid Section, elset=Set-69, material=Material-active
,
** Section: Section-2
*Solid Section, elset=Set-169, material=Material-passive
,
** Section: Section-1
*Solid Section, elset=Set-179, material=Material-active
,
** Section: Section-2
*Solid Section, elset=Set-189, material=Material-passive
,
** Section: Section-2
*Solid Section, elset=Set-79, material=Material-passive
,
** Section: Section-2
*Solid Section, elset=Set-199, material=Material-passive
,
** Section: Section-1
*Solid Section, elset=Set-99, material=Material-active
,
** Section: Section-2
*Solid Section, elset=Set-89, material=Material-passive
,
** Section: Section-1
*Solid Section, elset=Set-139, material=Material-active
,
*End Part
**  
**
** ASSEMBLY
**
*Assembly, name=Assembly
**  
*Instance, name=Part-1-1, part=Part-1
*End Instance
**  
*Nset, nset=_PickedSet4, internal, instance=Part-1-1, generate
    1,  7385,     1
*Elset, elset=_PickedSet4, internal, instance=Part-1-1, generate
    1,  5472,     1
** Constraint: Constraint-BD
*Equation
2
Part-1-1.Set-B, 3, 1.
Part-1-1.Set-D, 3, -1.
** Constraint: Constraint-C
*Equation
2
Part-1-1.Set-C, 1, 1.
Part-1-1.Set-C, 2, -1.
*End Assembly
** 
** MATERIALS
** 
*Material, name=Material-active
*Density
 1e-06,
*Expansion
 0.001,
*Hyperelastic, neo hooke
 0.1, 0.002
*Material, name=Material-passive
*Density
 1e-06,
*Expansion
0.,
*Hyperelastic, neo hooke
 0.1, 0.002
** 
** BOUNDARY CONDITIONS
** 
** Name: BC-A Type: /
*Boundary
Part-1-1.Set-A, 1, 1
Part-1-1.Set-A, 2, 2
Part-1-1.Set-A, 3, 3
** Name: BC-Cz Type: /
*Boundary
Part-1-1.Set-C, 3, 3
** 
** PREDEFINED FIELDS
** 
** Name: Predefined Field-1   Type: Temperature
*Initial Conditions, type=TEMPERATURE
_PickedSet4, 25.
** ----------------------------------------------------------------
** 
** STEP: Step-1
** 
*Step, name=Step-1, nlgeom=YES, inc=10000
*Static
0.1, 6., 1e-05, 0.5
** 
** PREDEFINED FIELDS
** 
** Name: Predefined Field-1   Type: Temperature
*Temperature
_PickedSet4, 85.
** 
** OUTPUT REQUESTS
** 
*Restart, write, frequency=0
** 
** FIELD OUTPUT: F-Output-1
** 
*Output, field, number interval=60
*Node Output
NT, U
*Element Output, directions=YES
S, TEMP
** 
** HISTORY OUTPUT: H-Output-1
** 
*Output, history, variable=PRESELECT
*End Step
