*Heading
** Job name: curvedsurfaced Model name: Model-1
** Generated by: Abaqus/CAE 2020
*Preprint, echo=NO, model=NO, history=NO, contact=NO
**
** PARTS
**
*Part, name=Part-1
*Node
      1,  -6.29574442,   16.9400005,          0.5
      2,  -6.29574442,   16.9400005,           0.
      3,  -7.76000023,   16.9400005,           0.
      4,  -7.76000023,   16.9400005,          0.5
      5,          -7.,          20.,          0.5
      6,          -7.,          20.,           0.
      7,  -7.76000023,          20.,           0.
      8,  -7.76000023,          20.,          0.5
      9,  -7.76000023,   16.9400005,           1.
     10,  -10.8199997,   16.9400005,          0.5
     11,  -10.8199997,   16.9400005,           1.
     12,  -7.76000023,          20.,           1.
     13,  -10.8199997,          20.,          0.5
     14,  -10.8199997,          20.,           1.
     15,  -13.8800001,   16.9400005,          0.5
     16,  -13.8800001,   16.9400005,           1.
     17,  -13.8800001,          20.,          0.5
     18,  -13.8800001,          20.,           1.
     19,  -16.9400005,   16.9400005,          0.5
     20,  -16.9400005,   16.9400005,           1.
** ... 7100 like lines cut
*Element, type=C3D8H
 1,    1,  589, 2973,  592,  599, 2979, 5993, 2975
 2,  589,    2,  590, 2973, 2979,  604, 2977, 5993
 3,  592, 2973,  591,    4, 2975, 5993, 2981,  598
 4, 2973,  590,    3,  591, 5993, 2977,  601, 2981
 5,  599, 2979, 5993, 2975,  600, 2980, 5994, 2976
 6, 2979,  604, 2977, 5993, 2980,  603, 2978, 5994
 7, 2975, 5993, 2981,  598, 2976, 5994, 2982,  597
 8, 5993, 2977,  601, 2981, 5994, 2978,  602, 2982
 9,  600, 2980, 5994, 2976,    5,  593, 2974,  596
10, 2980,  603, 2978, 5994,  593,    6,  594, 2974
11, 2976, 5994, 2982,  597,  596, 2974,  595,    8
12, 5994, 2978,  602, 2982, 2974,  594,    7,  595
13,    9,  605, 2983,  610,  619, 2995, 5995, 2987
14,  605,    4,  606, 2983, 2995,  598, 2991, 5995
15,  610, 2983, 2984,  609, 2987, 5995, 5996, 2988
16, 2983,  606,  607, 2984, 5995, 2991, 2992, 5996
17,  609, 2984,  608,   11, 2988, 5996, 2997,  618
18, 2984,  607,   10,  608, 5996, 2992,  622, 2997
19,  619, 2995, 5995, 2987,  620, 2996, 5997, 2989
20, 2995,  598, 2991, 5995, 2996,  597, 2993, 5997
** ... 5232 like lines cut
*Elset, elset=Set-0, generate
 5037,  5054,     1
*Elset, elset=Set-1, generate
 4791,  4808,     1
*Elset, elset=Set-2, generate
 4093,  4110,     1
*Elset, elset=Set-3, generate
 3559,  3576,     1
*Elset, elset=Set-4, generate
 3991,  4002,     1
*Elset, elset=Set-8, generate
 1809,  1820,     1
*Elset, elset=Set-9, generate
 1427,  1444,     1
*Elset, elset=Set-10, generate
 1025,  1042,     1
*Elset, elset=Set-11, generate
 247,  264,    1
*Elset, elset=Set-12, generate
  85,  102,    1
*Elset, elset=Set-13, generate
 5019,  5036,     1
*Elset, elset=Set-14, generate
 4809,  4826,     1
*Elset, elset=Set-15, generate
 4075,  4092,     1
*Elset, elset=Set-16, generate
 3541,  3558,     1
*Elset, elset=Set-22, generate
 1409,  1426,     1
*Elset, elset=Set-23, generate
 1043,  1060,     1
*Elset, elset=Set-24, generate
 265,  282,    1
*Elset, elset=Set-25, generate
 103,  120,    1
*Elset, elset=Set-26, generate
 4965,  4982,     1
*Elset, elset=Set-27, generate
 4827,  4844,     1
** ... 508 like lines cut
*Elset, elset=Set-17
 3409, 3410, 3411, 3412, 3413, 3414, 3415, 3416, 3417, 3418, 3419, 3420, 3421, 3422, 3423, 3424
 3425, 3426, 3511, 3512, 3513, 3514, 3515, 3516
*Elset, elset=Set-21
 1791, 1792, 1793, 1794, 1795, 1796, 1797, 1798, 1799, 1800, 1801, 1802, 1803, 1804, 1805, 1806
 1807, 1808, 2257, 2258, 2259, 2260, 2261, 2262
*Elset, elset=Set-53
 4707, 4708, 4709, 4710, 4711, 4712, 4863, 4864, 4865, 4866, 4867, 4868, 4869, 4870, 4871, 4872
 4873, 4874, 4875, 4876, 4877, 4878, 4879, 4880
*Elset, elset=Set-63
 157, 158, 159, 160, 161, 162, 163, 164, 165, 166, 167, 168, 169, 170, 171, 172
 173, 174, 891, 892, 893, 894, 895, 896
*Elset, elset=Set-105, generate
 4683,  4706,     1
*Elset, elset=Set-115
 475, 476, 477, 478, 479, 480, 481, 482, 483, 484, 485, 486, 487, 488, 489, 490
 491, 492, 879, 880, 881, 882, 883, 884
*Elset, elset=Set-147
 3247, 3248, 3249, 3250, 3251, 3252, 3253, 3254, 3255, 3256, 3257, 3258, 3259, 3260, 3261, 3262
 3263, 3264, 3505, 3506, 3507, 3508, 3509, 3510
*Elset, elset=Set-151
 2055, 2056, 2057, 2058, 2059, 2060, 2061, 2062, 2063, 2064, 2065, 2066, 2067, 2068, 2069, 2070
 2071, 2072, 2421, 2422, 2423, 2424, 2425, 2426
*Elset, elset=Set-186
 3445, 3446, 3447, 3448, 3449, 3450, 3451, 3452, 3453, 3454, 3455, 3456, 3457, 3458, 3459, 3460
 3461, 3462, 3517, 3518, 3519, 3520, 3521, 3522
*Elset, elset=Set-190
 1833, 1834, 1835, 1836, 1837, 1838, 1839, 1840, 1841, 1842, 1843, 1844, 1845, 1846, 1847, 1848
 1849, 1850, 2263, 2264, 2265, 2266, 2267, 2268
*Elset, elset=Set-222, generate
 4713,  4736,     1
*Elset, elset=Set-232
  897,  898,  899,  900,  901,  902,  903,  904,  905,  906,  907,  908,  909,  910,  911,  912
  913,  914, 1115, 1116, 1117, 1118, 1119, 1120
*Elset, elset=Set-274, generate
 4533,  4556,     1
*Elset, elset=Set-284
 331, 332, 333, 334, 335, 336, 337, 338, 339, 340, 341, 342, 343, 344, 345, 346
 347, 348, 885, 886, 887, 888, 889, 890
*Elset, elset=Set-316
 3229, 3230, 3231, 3232, 3233, 3234, 3235, 3236, 3237, 3238, 3239, 3240, 3241, 3242, 3243, 3244
 3245, 3246, 3499, 3500, 3501, 3502, 3503, 3504
*Elset, elset=Set-320
 2013, 2014, 2015, 2016, 2017, 2018, 2019, 2020, 2021, 2022, 2023, 2024, 2025, 2026, 2027, 2028
 2029, 2030, 2415, 2416, 2417, 2418, 2419, 2420
*Nset, nset=Set-A
 566,
*Nset, nset=Set-B
 586,
*Nset, nset=Set-C
 103,
*Nset, nset=Set-D
 25,
*Elset, elset=Set-317
   13,   14,   15,   16,   17,   18,   19,   20,   21,   22,   23,   24,   25,   26,   27,   28
   29,   30,   31,   32,   33,   34,   35,   36,   37,   38,   39,   40,   41,   42,   43,   44
   45,   46,   47,   48,   49,   50,   51,   52,   53,   54,   55,   56,   57,   58,   59,   60
   61,   62,   63,   64,   65,   66,   67,   68,   69,   70,   71,   72,   73,   74,   75,   76
   77,   78,   79,   80,   81,   82,   83,   84,  175,  176,  177,  178,  179,  180,  181,  182
  183,  184,  185,  186,  187,  188,  189,  190,  191,  192,  193,  194,  195,  196,  197,  198
  199,  200,  201,  202,  203,  204,  205,  206,  207,  208,  209,  210,  211,  212,  213,  214
  215,  216,  217,  218,  219,  220,  221,  222,  223,  224,  225,  226,  227,  228,  229,  230
  231,  232,  233,  234,  235,  236,  237,  238,  239,  240,  241,  242,  243,  244,  245,  246
  319,  320,  321,  322,  323,  324,  325,  326,  327,  328,  329,  330,  331,  332,  333,  334
  335,  336,  337,  338,  339,  340,  341,  342,  343,  344,  345,  346,  347,  348,  349,  350
  351,  352,  353,  354,  355,  356,  357,  358,  359,  360,  361,  362,  363,  364,  365,  366
  367,  368,  369,  370,  371,  372,  373,  374,  375,  376,  377,  378,  379,  380,  381,  382
  383,  384,  385,  386,  387,  388,  389,  390,  391,  392,  393,  394,  395,  396,  397,  398
  399,  400,  401,  402,  403,  404,  405,  406,  407,  408,  409,  410,  411,  412,  413,  414
  415,  416,  417,  418,  419,  420,  493,  494,  495,  496,  497,  498,  499,  500,  501,  502
  503,  504,  505,  506,  507,  508,  509,  510,  511,  512,  513,  514,  515,  516,  517,  518
  519,  520,  521,  522,  523,  524,  525,  526,  527,  528,  529,  530,  531,  532,  533,  534
  535,  536,  537,  538,  539,  540,  541,  542,  543,  544,  545,  546,  547,  548,  549,  550
  551,  552,  553,  554,  555,  556,  557,  558,  559,  560,  561,  562,  563,  564,  565,  566
** ... 145 like lines cut
*Elset, elset=Set-318
    1,    2,    3,    4,    5,    6,    7,    8,    9,   10,   11,   12,   85,   86,   87,   88
   89,   90,   91,   92,   93,   94,   95,   96,   97,   98,   99,  100,  101,  102,  103,  104
  105,  106,  107,  108,  109,  110,  111,  112,  113,  114,  115,  116,  117,  118,  119,  120
  121,  122,  123,  124,  125,  126,  127,  128,  129,  130,  131,  132,  133,  134,  135,  136
  137,  138,  139,  140,  141,  142,  143,  144,  145,  146,  147,  148,  149,  150,  151,  152
  153,  154,  155,  156,  157,  158,  159,  160,  161,  162,  163,  164,  165,  166,  167,  168
  169,  170,  171,  172,  173,  174,  247,  248,  249,  250,  251,  252,  253,  254,  255,  256
  257,  258,  259,  260,  261,  262,  263,  264,  265,  266,  267,  268,  269,  270,  271,  272
  273,  274,  275,  276,  277,  278,  279,  280,  281,  282,  283,  284,  285,  286,  287,  288
  289,  290,  291,  292,  293,  294,  295,  296,  297,  298,  299,  300,  301,  302,  303,  304
  305,  306,  307,  308,  309,  310,  311,  312,  313,  314,  315,  316,  317,  318,  421,  422
  423,  424,  425,  426,  427,  428,  429,  430,  431,  432,  433,  434,  435,  436,  437,  438
  439,  440,  441,  442,  443,  444,  445,  446,  447,  448,  449,  450,  451,  452,  453,  454
  455,  456,  457,  458,  459,  460,  461,  462,  463,  464,  465,  466,  467,  468,  469,  470
  471,  472,  473,  474,  475,  476,  477,  478,  479,  480,  481,  482,  483,  484,  485,  486
  487,  488,  489,  490,  491,  492,  577,  578,  579,  580,  581,  582,  583,  584,  585,  586
  587,  588,  589,  590,  591,  592,  593,  594,  595,  596,  597,  598,  599,  600,  601,  602
  603,  604,  605,  606,  607,  608,  609,  610,  611,  612,  613,  614,  615,  616,  617,  618
  619,  620,  621,  622,  623,  624,  625,  626,  627,  628,  629,  630,  631,  632,  633,  634
  635,  636,  637,  638,  639,  640,  641,  642,  643,  644,  645,  646,  647,  648,  649,  650
** ... 145 like lines cut
** Section: Section-1
*Solid Section, elset=Set-64, material=Material-active
,
** Section: Section-1
*Solid Section, elset=Set-220, material=Material-active
,
** Section: Section-1
*Solid Section, elset=Set-207, material=Material-active
,
** Section: Section-1
*Solid Section, elset=Set-194, material=Material-active
,
** Section: Section-1
*Solid Section, elset=Set-181, material=Material-active
,
** Section: Section-1
*Solid Section, elset=Set-12, material=Material-active
,
** Section: Section-1
*Solid Section, elset=Set-25, material=Material-active
,
** Section: Section-1
*Solid Section, elset=Set-38, material=Material-active
,
** Section: Section-2
*Solid Section, elset=Set-51, material=Material-passive
,
** Section: Section-1
*Solid Section, elset=Set-63, material=Material-active
,
** Section: Section-2
*Solid Section, elset=Set-219, material=Material-passive
,
** Section: Section-2
*Solid Section, elset=Set-206, material=Material-passive
,
** Section: Section-2
*Solid Section, elset=Set-193, material=Material-passive
,
** Section: Section-1
*Solid Section, elset=Set-180, material=Material-active
,
** Section: Section-1
*Solid Section, elset=Set-11, material=Material-active
,
** Section: Section-2
*Solid Section, elset=Set-24, material=Material-passive
,
** Section: Section-2
*Solid Section, elset=Set-37, material=Material-passive
,
** Section: Section-1
*Solid Section, elset=Set-50, material=Material-active
,
** Section: Section-1
*Solid Section, elset=Set-233, material=Material-active
,
** Section: Section-1
*Solid Section, elset=Set-284, material=Material-active
,
** Section: Section-1
*Solid Section, elset=Set-297, material=Material-active
,
** Section: Section-2
*Solid Section, elset=Set-310, material=Material-passive
,
** Section: Section-2
*Solid Section, elset=Set-323, material=Material-passive
,
** Section: Section-2
*Solid Section, elset=Set-336, material=Material-passive
,
** Section: Section-1
*Solid Section, elset=Set-154, material=Material-active
,
** Section: Section-1
*Solid Section, elset=Set-141, material=Material-active
,
** Section: Section-2
*Solid Section, elset=Set-128, material=Material-passive
,
** Section: Section-2
*Solid Section, elset=Set-115, material=Material-passive
,
** Section: Section-1
*Solid Section, elset=Set-285, material=Material-active
,
** Section: Section-2
*Solid Section, elset=Set-298, material=Material-passive
,
** Section: Section-1
*Solid Section, elset=Set-311, material=Material-active
,
** Section: Section-1
*Solid Section, elset=Set-324, material=Material-active
,
** Section: Section-1
*Solid Section, elset=Set-337, material=Material-active
,
** Section: Section-2
*Solid Section, elset=Set-155, material=Material-passive
,
** Section: Section-2
*Solid Section, elset=Set-142, material=Material-passive
,
** Section: Section-2
*Solid Section, elset=Set-129, material=Material-passive
,
** Section: Section-1
*Solid Section, elset=Set-116, material=Material-active
,
** Section: Section-1
*Solid Section, elset=Set-168, material=Material-active
,
** Section: Section-2
*Solid Section, elset=Set-166, material=Material-passive
,
** Section: Section-1
*Solid Section, elset=Set-153, material=Material-active
,
** Section: Section-1
*Solid Section, elset=Set-140, material=Material-active
,
** Section: Section-2
*Solid Section, elset=Set-127, material=Material-passive
,
** Section: Section-2
*Solid Section, elset=Set-114, material=Material-passive
,
** Section: Section-2
*Solid Section, elset=Set-101, material=Material-passive
,
** Section: Section-1
*Solid Section, elset=Set-283, material=Material-active
,
** Section: Section-1
*Solid Section, elset=Set-296, material=Material-active
,
** Section: Section-1
*Solid Section, elset=Set-309, material=Material-active
,
** Section: Section-2
*Solid Section, elset=Set-322, material=Material-passive
,
** Section: Section-1
*Solid Section, elset=Set-335, material=Material-active
,
** Section: Section-2
*Solid Section, elset=Set-167, material=Material-passive
,
** Section: Section-2
*Solid Section, elset=Set-232, material=Material-passive
,
** Section: Section-2
*Solid Section, elset=Set-75, material=Material-passive
,
** Section: Section-2
*Solid Section, elset=Set-231, material=Material-passive
,
** Section: Section-2
*Solid Section, elset=Set-218, material=Material-passive
,
** Section: Section-2
*Solid Section, elset=Set-205, material=Material-passive
,
** Section: Section-1
*Solid Section, elset=Set-192, material=Material-active
,
** Section: Section-2
*Solid Section, elset=Set-179, material=Material-passive
,
** Section: Section-1
*Solid Section, elset=Set-10, material=Material-active
,
** Section: Section-2
*Solid Section, elset=Set-23, material=Material-passive
,
** Section: Section-2
*Solid Section, elset=Set-36, material=Material-passive
,
** Section: Section-2
*Solid Section, elset=Set-49, material=Material-passive
,
** Section: Section-1
*Solid Section, elset=Set-62, material=Material-active
,
** Section: Section-1
*Solid Section, elset=Set-243, material=Material-active
,
** Section: Section-2
*Solid Section, elset=Set-256, material=Material-passive
,
** Section: Section-2
*Solid Section, elset=Set-269, material=Material-passive
,
** Section: Section-1
*Solid Section, elset=Set-282, material=Material-active
,
** Section: Section-2
*Solid Section, elset=Set-295, material=Material-passive
,
** Section: Section-2
*Solid Section, elset=Set-308, material=Material-passive
,
** Section: Section-1
*Solid Section, elset=Set-321, material=Material-active
,
** Section: Section-1
*Solid Section, elset=Set-334, material=Material-active
,
** Section: Section-2
*Solid Section, elset=Set-165, material=Material-passive
,
** Section: Section-1
*Solid Section, elset=Set-152, material=Material-active
,
** Section: Section-1
*Solid Section, elset=Set-139, material=Material-active
,
** Section: Section-1
*Solid Section, elset=Set-113, material=Material-active
,
** Section: Section-1
*Solid Section, elset=Set-100, material=Material-active
,
** Section: Section-2
*Solid Section, elset=Set-87, material=Material-passive
,
** Section: Section-2
*Solid Section, elset=Set-74, material=Material-passive
,
** Section: Section-1
*Solid Section, elset=Set-61, material=Material-active
,
** Section: Section-2
*Solid Section, elset=Set-22, material=Material-passive
,
** Section: Section-2
*Solid Section, elset=Set-9, material=Material-passive
,
** Section: Section-1
*Solid Section, elset=Set-178, material=Material-active
,
** Section: Section-1
*Solid Section, elset=Set-191, material=Material-active
,
** Section: Section-2
*Solid Section, elset=Set-35, material=Material-passive
,
** Section: Section-1
*Solid Section, elset=Set-48, material=Material-active
,
** Section: Section-1
*Solid Section, elset=Set-230, material=Material-active
,
** Section: Section-2
*Solid Section, elset=Set-204, material=Material-passive
,
** Section: Section-1
*Solid Section, elset=Set-217, material=Material-active
,
** Section: Section-1
*Solid Section, elset=Set-244, material=Material-active
,
** Section: Section-1
*Solid Section, elset=Set-257, material=Material-active
,
** Section: Section-2
*Solid Section, elset=Set-270, material=Material-passive
,
** Section: Section-1
*Solid Section, elset=Set-88, material=Material-active
,
** Section: Section-1
*Solid Section, elset=Set-125, material=Material-active
,
** Section: Section-2
*Solid Section, elset=Set-112, material=Material-passive
,
** Section: Section-2
*Solid Section, elset=Set-99, material=Material-passive
,
** Section: Section-1
*Solid Section, elset=Set-86, material=Material-active
,
** Section: Section-1
*Solid Section, elset=Set-73, material=Material-active
,
** Section: Section-1
*Solid Section, elset=Set-60, material=Material-active
,
** Section: Section-2
*Solid Section, elset=Set-47, material=Material-passive
,
** Section: Section-1
*Solid Section, elset=Set-34, material=Material-active
,
** Section: Section-1
*Solid Section, elset=Set-21, material=Material-active
,
** Section: Section-1
*Solid Section, elset=Set-8, material=Material-active
,
** Section: Section-1
*Solid Section, elset=Set-177, material=Material-active
,
** Section: Section-1
*Solid Section, elset=Set-190, material=Material-active
,
** Section: Section-2
*Solid Section, elset=Set-203, material=Material-passive
,
** Section: Section-1
*Solid Section, elset=Set-216, material=Material-active
,
** Section: Section-1
*Solid Section, elset=Set-229, material=Material-active
,
** Section: Section-2
*Solid Section, elset=Set-242, material=Material-passive
,
** Section: Section-2
*Solid Section, elset=Set-255, material=Material-passive
,
** Section: Section-1
*Solid Section, elset=Set-268, material=Material-active
,
** Section: Section-1
*Solid Section, elset=Set-281, material=Material-active
,
** Section: Section-2
*Solid Section, elset=Set-294, material=Material-passive
,
** Section: Section-2
*Solid Section, elset=Set-307, material=Material-passive
,
** Section: Section-2
*Solid Section, elset=Set-320, material=Material-passive
,
** Section: Section-1
*Solid Section, elset=Set-333, material=Material-active
,
** Section: Section-1
*Solid Section, elset=Set-164, material=Material-active
,
** Section: Section-1
*Solid Section, elset=Set-151, material=Material-active
,
** Section: Section-2
*Solid Section, elset=Set-126, material=Material-passive
,
** Section: Section-1
*Solid Section, elset=Set-137, material=Material-active
,
** Section: Section-1
*Solid Section, elset=Set-124, material=Material-active
,
** Section: Section-1
*Solid Section, elset=Set-111, material=Material-active
,
** Section: Section-1
*Solid Section, elset=Set-98, material=Material-active
,
** Section: Section-2
*Solid Section, elset=Set-85, material=Material-passive
,
** Section: Section-2
*Solid Section, elset=Set-72, material=Material-passive
,
** Section: Section-1
*Solid Section, elset=Set-59, material=Material-active
,
** Section: Section-1
*Solid Section, elset=Set-46, material=Material-active
,
** Section: Section-2
*Solid Section, elset=Set-33, material=Material-passive
,
** Section: Section-2
*Solid Section, elset=Set-215, material=Material-passive
,
** Section: Section-2
*Solid Section, elset=Set-228, material=Material-passive
,
** Section: Section-2
*Solid Section, elset=Set-241, material=Material-passive
,
** Section: Section-2
*Solid Section, elset=Set-254, material=Material-passive
,
** Section: Section-2
*Solid Section, elset=Set-267, material=Material-passive
,
** Section: Section-2
*Solid Section, elset=Set-280, material=Material-passive
,
** Section: Section-2
*Solid Section, elset=Set-293, material=Material-passive
,
** Section: Section-1
*Solid Section, elset=Set-306, material=Material-active
,
** Section: Section-2
*Solid Section, elset=Set-138, material=Material-passive
,
** Section: Section-1
*Solid Section, elset=Set-202, material=Material-active
,
** Section: Section-1
*Solid Section, elset=Set-201, material=Material-active
,
** Section: Section-2
*Solid Section, elset=Set-214, material=Material-passive
,
** Section: Section-1
*Solid Section, elset=Set-227, material=Material-active
,
** Section: Section-2
*Solid Section, elset=Set-253, material=Material-passive
,
** Section: Section-2
*Solid Section, elset=Set-266, material=Material-passive
,
** Section: Section-1
*Solid Section, elset=Set-279, material=Material-active
,
** Section: Section-1
*Solid Section, elset=Set-292, material=Material-active
,
** Section: Section-2
*Solid Section, elset=Set-305, material=Material-passive
,
** Section: Section-1
*Solid Section, elset=Set-136, material=Material-active
,
** Section: Section-2
*Solid Section, elset=Set-123, material=Material-passive
,
** Section: Section-1
*Solid Section, elset=Set-110, material=Material-active
,
** Section: Section-1
*Solid Section, elset=Set-97, material=Material-active
,
** Section: Section-2
*Solid Section, elset=Set-84, material=Material-passive
,
** Section: Section-1
*Solid Section, elset=Set-71, material=Material-active
,
** Section: Section-2
*Solid Section, elset=Set-58, material=Material-passive
,
** Section: Section-2
*Solid Section, elset=Set-45, material=Material-passive
,
** Section: Section-1
*Solid Section, elset=Set-32, material=Material-active
,
** Section: Section-2
*Solid Section, elset=Set-239, material=Material-passive
,
** Section: Section-2
*Solid Section, elset=Set-252, material=Material-passive
,
** Section: Section-1
*Solid Section, elset=Set-265, material=Material-active
,
** Section: Section-1
*Solid Section, elset=Set-278, material=Material-active
,
** Section: Section-1
*Solid Section, elset=Set-291, material=Material-active
,
** Section: Section-2
*Solid Section, elset=Set-304, material=Material-passive
,
** Section: Section-2
*Solid Section, elset=Set-135, material=Material-passive
,
** Section: Section-2
*Solid Section, elset=Set-122, material=Material-passive
,
** Section: Section-1
*Solid Section, elset=Set-109, material=Material-active
,
** Section: Section-2
*Solid Section, elset=Set-96, material=Material-passive
,
** Section: Section-2
*Solid Section, elset=Set-83, material=Material-passive
,
** Section: Section-2
*Solid Section, elset=Set-70, material=Material-passive
,
** Section: Section-2
*Solid Section, elset=Set-57, material=Material-passive
,
** Section: Section-2
*Solid Section, elset=Set-31, material=Material-passive
,
** Section: Section-2
*Solid Section, elset=Set-44, material=Material-passive
,
** Section: Section-1
*Solid Section, elset=Set-200, material=Material-active
,
** Section: Section-2
*Solid Section, elset=Set-213, material=Material-passive
,
** Section: Section-1
*Solid Section, elset=Set-240, material=Material-active
,
** Section: Section-1
*Solid Section, elset=Set-225, material=Material-active
,
** Section: Section-1
*Solid Section, elset=Set-238, material=Material-active
,
** Section: Section-1
*Solid Section, elset=Set-251, material=Material-active
,
** Section: Section-1
*Solid Section, elset=Set-264, material=Material-active
,
** Section: Section-1
*Solid Section, elset=Set-277, material=Material-active
,
** Section: Section-1
*Solid Section, elset=Set-290, material=Material-active
,
** Section: Section-2
*Solid Section, elset=Set-303, material=Material-passive
,
** Section: Section-2
*Solid Section, elset=Set-316, material=Material-passive
,
** Section: Section-1
*Solid Section, elset=Set-147, material=Material-active
,
** Section: Section-2
*Solid Section, elset=Set-134, material=Material-passive
,
** Section: Section-1
*Solid Section, elset=Set-121, material=Material-active
,
** Section: Section-1
*Solid Section, elset=Set-108, material=Material-active
,
** Section: Section-1
*Solid Section, elset=Set-95, material=Material-active
,
** Section: Section-2
*Solid Section, elset=Set-82, material=Material-passive
,
** Section: Section-1
*Solid Section, elset=Set-69, material=Material-active
,
** Section: Section-1
*Solid Section, elset=Set-56, material=Material-active
,
** Section: Section-2
*Solid Section, elset=Set-43, material=Material-passive
,
** Section: Section-1
*Solid Section, elset=Set-17, material=Material-active
,
** Section: Section-2
*Solid Section, elset=Set-212, material=Material-passive
,
** Section: Section-1
*Solid Section, elset=Set-186, material=Material-active
,
** Section: Section-2
*Solid Section, elset=Set-199, material=Material-passive
,
** Section: Section-2
*Solid Section, elset=Set-226, material=Material-passive
,
** Section: Section-1
*Solid Section, elset=Set-29, material=Material-active
,
** Section: Section-2
*Solid Section, elset=Set-16, material=Material-passive
,
** Section: Section-2
*Solid Section, elset=Set-3, material=Material-passive
,
** Section: Section-1
*Solid Section, elset=Set-172, material=Material-active
,
** Section: Section-1
*Solid Section, elset=Set-185, material=Material-active
,
** Section: Section-2
*Solid Section, elset=Set-198, material=Material-passive
,
** Section: Section-2
*Solid Section, elset=Set-211, material=Material-passive
,
** Section: Section-2
*Solid Section, elset=Set-224, material=Material-passive
,
** Section: Section-1
*Solid Section, elset=Set-237, material=Material-active
,
** Section: Section-1
*Solid Section, elset=Set-250, material=Material-active
,
** Section: Section-2
*Solid Section, elset=Set-263, material=Material-passive
,
** Section: Section-1
*Solid Section, elset=Set-276, material=Material-active
,
** Section: Section-1
*Solid Section, elset=Set-289, material=Material-active
,
** Section: Section-1
*Solid Section, elset=Set-302, material=Material-active
,
** Section: Section-1
*Solid Section, elset=Set-315, material=Material-active
,
** Section: Section-1
*Solid Section, elset=Set-328, material=Material-active
,
** Section: Section-1
*Solid Section, elset=Set-159, material=Material-active
,
** Section: Section-1
*Solid Section, elset=Set-146, material=Material-active
,
** Section: Section-2
*Solid Section, elset=Set-133, material=Material-passive
,
** Section: Section-2
*Solid Section, elset=Set-120, material=Material-passive
,
** Section: Section-2
*Solid Section, elset=Set-107, material=Material-passive
,
** Section: Section-1
*Solid Section, elset=Set-94, material=Material-active
,
** Section: Section-2
*Solid Section, elset=Set-81, material=Material-passive
,
** Section: Section-2
*Solid Section, elset=Set-68, material=Material-passive
,
** Section: Section-1
*Solid Section, elset=Set-55, material=Material-active
,
** Section: Section-2
*Solid Section, elset=Set-30, material=Material-passive
,
** Section: Section-1
*Solid Section, elset=Set-4, material=Material-active
,
** Section: Section-2
*Solid Section, elset=Set-173, material=Material-passive
,
** Section: Section-1
*Solid Section, elset=Set-329, material=Material-active
,
** Section: Section-1
*Solid Section, elset=Set-160, material=Material-active
,
** Section: Section-2
*Solid Section, elset=Set-41, material=Material-passive
,
** Section: Section-1
*Solid Section, elset=Set-28, material=Material-active
,
** Section: Section-1
*Solid Section, elset=Set-15, material=Material-active
,
** Section: Section-2
*Solid Section, elset=Set-2, material=Material-passive
,
** Section: Section-1
*Solid Section, elset=Set-171, material=Material-active
,
** Section: Section-2
*Solid Section, elset=Set-184, material=Material-passive
,
** Section: Section-1
*Solid Section, elset=Set-197, material=Material-active
,
** Section: Section-1
*Solid Section, elset=Set-210, material=Material-active
,
** Section: Section-2
*Solid Section, elset=Set-223, material=Material-passive
,
** Section: Section-1
*Solid Section, elset=Set-236, material=Material-active
,
** Section: Section-1
*Solid Section, elset=Set-249, material=Material-active
,
** Section: Section-1
*Solid Section, elset=Set-275, material=Material-active
,
** Section: Section-2
*Solid Section, elset=Set-288, material=Material-passive
,
** Section: Section-1
*Solid Section, elset=Set-301, material=Material-active
,
** Section: Section-2
*Solid Section, elset=Set-314, material=Material-passive
,
** Section: Section-2
*Solid Section, elset=Set-327, material=Material-passive
,
** Section: Section-1
*Solid Section, elset=Set-158, material=Material-active
,
** Section: Section-1
*Solid Section, elset=Set-145, material=Material-active
,
** Section: Section-2
*Solid Section, elset=Set-132, material=Material-passive
,
** Section: Section-2
*Solid Section, elset=Set-119, material=Material-passive
,
** Section: Section-1
*Solid Section, elset=Set-106, material=Material-active
,
** Section: Section-1
*Solid Section, elset=Set-93, material=Material-active
,
** Section: Section-2
*Solid Section, elset=Set-80, material=Material-passive
,
** Section: Section-1
*Solid Section, elset=Set-67, material=Material-active
,
** Section: Section-1
*Solid Section, elset=Set-54, material=Material-active
,
** Section: Section-1
*Solid Section, elset=Set-42, material=Material-active
,
** Section: Section-2
*Solid Section, elset=Set-262, material=Material-passive
,
** Section: Section-2
*Solid Section, elset=Set-274, material=Material-passive
,
** Section: Section-2
*Solid Section, elset=Set-287, material=Material-passive
,
** Section: Section-2
*Solid Section, elset=Set-300, material=Material-passive
,
** Section: Section-1
*Solid Section, elset=Set-313, material=Material-active
,
** Section: Section-1
*Solid Section, elset=Set-326, material=Material-active
,
** Section: Section-2
*Solid Section, elset=Set-157, material=Material-passive
,
** Section: Section-1
*Solid Section, elset=Set-144, material=Material-active
,
** Section: Section-1
*Solid Section, elset=Set-131, material=Material-active
,
** Section: Section-1
*Solid Section, elset=Set-105, material=Material-active
,
** Section: Section-2
*Solid Section, elset=Set-53, material=Material-passive
,
** Section: Section-2
*Solid Section, elset=Set-222, material=Material-passive
,
** Section: Section-1
*Solid Section, elset=Set-209, material=Material-active
,
** Section: Section-2
*Solid Section, elset=Set-183, material=Material-passive
,
** Section: Section-2
*Solid Section, elset=Set-170, material=Material-passive
,
** Section: Section-1
*Solid Section, elset=Set-1, material=Material-active
,
** Section: Section-1
*Solid Section, elset=Set-14, material=Material-active
,
** Section: Section-1
*Solid Section, elset=Set-27, material=Material-active
,
** Section: Section-2
*Solid Section, elset=Set-40, material=Material-passive
,
** Section: Section-2
*Solid Section, elset=Set-196, material=Material-passive
,
** Section: Section-2
*Solid Section, elset=Set-195, material=Material-passive
,
** Section: Section-1
*Solid Section, elset=Set-221, material=Material-active
,
** Section: Section-2
*Solid Section, elset=Set-39, material=Material-passive
,
** Section: Section-2
*Solid Section, elset=Set-208, material=Material-passive
,
** Section: Section-1
*Solid Section, elset=Set-26, material=Material-active
,
** Section: Section-1
*Solid Section, elset=Set-182, material=Material-active
,
** Section: Section-1
*Solid Section, elset=Set-169, material=Material-active
,
** Section: Section-2
*Solid Section, elset=Set-13, material=Material-passive
,
** Section: Section-2
*Solid Section, elset=Set-0, material=Material-passive
,
** Section: Section-1
*Solid Section, elset=Set-52, material=Material-active
,
** Section: Section-1
*Solid Section, elset=Set-117, material=Material-active
,
** Section: Section-2
*Solid Section, elset=Set-104, material=Material-passive
,
** Section: Section-1
*Solid Section, elset=Set-273, material=Material-active
,
** Section: Section-1
*Solid Section, elset=Set-286, material=Material-active
,
** Section: Section-1
*Solid Section, elset=Set-299, material=Material-active
,
** Section: Section-2
*Solid Section, elset=Set-312, material=Material-passive
,
** Section: Section-2
*Solid Section, elset=Set-130, material=Material-passive
,
** Section: Section-1
*Solid Section, elset=Set-143, material=Material-active
,
** Section: Section-2
*Solid Section, elset=Set-156, material=Material-passive
,
** Section: Section-2
*Solid Section, elset=Set-118, material=Material-passive
,
** Section: Section-1
*Solid Section, elset=Set-325, material=Material-active
,
*End Part
**  
**
** ASSEMBLY
**
*Assembly, name=Assembly
**  
*Instance, name=Part-1-1, part=Part-1
*End Instance
**  
*Nset, nset=_PickedSet5, internal, instance=Part-1-1, generate
    1,  7120,     1
*Elset, elset=_PickedSet5, internal, instance=Part-1-1, generate
    1,  5252,     1
** Constraint: Constraint-BD
*Equation
2
Part-1-1.Set-B, 3, 1.
Part-1-1.Set-D, 3, -1.
** Constraint: Constraint-C
*Equation
2
Part-1-1.Set-C, 1, 1.
Part-1-1.Set-C, 2, -1.
*End Assembly
** 
** MATERIALS
** 
*Material, name=Material-active
*Density
 1e-06,
*Expansion
 0.001,
*Hyperelastic, neo hooke
 0.1, 0.002
*Material, name=Material-passive
*Density
 1e-06,
*Expansion
0.,
*Hyperelastic, neo hooke
 0.1, 0.002
** 
** BOUNDARY CONDITIONS
** 
** Name: BC-A Type: /
*Boundary
Part-1-1.Set-A, 1, 1
Part-1-1.Set-A, 2, 2
Part-1-1.Set-A, 3, 3
** Name: BC-Cz Type: /
*Boundary
Part-1-1.Set-C, 3, 3
** 
** PREDEFINED FIELDS
** 
** Name: Predefined Field-1   Type: Temperature
*Initial Conditions, type=TEMPERATURE
_PickedSet5, 25.
** ----------------------------------------------------------------
** 
** STEP: Step-1
** 
*Step, name=Step-1, nlgeom=YES, inc=10000
*Static
0.1, 6., 1e-05, 0.5
** 
** PREDEFINED FIELDS
** 
** Name: Predefined Field-1   Type: Temperature
*Temperature
_PickedSet5, 85.
** 
** OUTPUT REQUESTS
** 
*Restart, write, frequency=0
** 
** FIELD OUTPUT: F-Output-1
** 
*Output, field, number interval=4
*Node Output
NT, U
*Element Output, directions=YES
S, TEMP
** 
** HISTORY OUTPUT: H-Output-1
** 
*Output, history, variable=PRESELECT
*End Step
