*Heading
** Job name: curvedsurface Model name: Model-1
** Generated by: Abaqus/CAE 2020
*Preprint, echo=NO, model=NO, history=NO, contact=NO
**
** PARTS
**
*Part, name=Part-1
*Node
      1,           0.,          21.,          0.5
      2,    3.4000001,          21.,          0.5
      3,    3.4000001,   24.3999996,          0.5
      4,           0.,   24.3999996,          0.5
      5,    3.4000001,          21.,           0.
      6,    3.4000001,   24.3999996,           0.
      7,           0.,   24.3999996,           0.
      8,           0.,          21.,           0.
      9,           0.,   27.7999992,          0.5
     10,    3.4000001,   27.7999992,          0.5
     11,    3.4000001,   27.7999992,           0.
     12,           0.,   27.7999992,           0.
     13,    3.4000001,   31.2000008,          0.5
     14,           0.,   31.2000008,          0.5
     15,           0.,   31.2000008,           0.
     16,    3.4000001,   31.2000008,           0.
     17,           0.,   34.5999985,          0.5
     18,    3.4000001,   34.5999985,          0.5
     19,    3.4000001,   34.5999985,           0.
     20,           0.,   34.5999985,           0.
** ... 5280 like lines cut
*Element, type=C3D8H
 1,  339, 1853, 4265, 1849,    1,  322, 1841,  329
 2, 1853, 1854, 4266, 4265,  322,  323, 1842, 1841
 3, 1854,  341, 1851, 4266,  323,    2,  324, 1842
 4, 1849, 4265, 4267, 1850,  329, 1841, 1843,  328
 5, 4265, 4266, 4268, 4267, 1841, 1842, 1844, 1843
 6, 4266, 1851, 1852, 4268, 1842,  324,  325, 1844
 7, 1850, 4267, 1855,  338,  328, 1843,  327,    4
 8, 4267, 4268, 1856, 1855, 1843, 1844,  326,  327
 9, 4268, 1852,  340, 1856, 1844,  325,    3,  326
10,    8,  331, 1845,  336,  339, 1853, 4265, 1849
11,  331,  330, 1846, 1845, 1853, 1854, 4266, 4265
12,  330,    5,  333, 1846, 1854,  341, 1851, 4266
13,  336, 1845, 1847,  337, 1849, 4265, 4267, 1850
14, 1845, 1846, 1848, 1847, 4265, 4266, 4268, 4267
15, 1846,  333,  332, 1848, 4266, 1851, 1852, 4268
16,  337, 1847,  334,    7, 1850, 4267, 1855,  338
17, 1847, 1848,  335,  334, 4267, 4268, 1856, 1855
18, 1848,  332,    6,  335, 4268, 1852,  340, 1856
19,  355, 1867, 4269, 1865,    9,  342, 1857,  347
20, 1867, 1868, 4270, 4269,  342,  343, 1858, 1857
** ... 3980 like lines cut
*Nset, nset=Set-5
  185,  186,  189,  291,  292,  293,  304,  305,  306,  317,  318,  319, 1146, 1147, 1148, 1149
 1150, 1151, 1152, 1153, 1172, 1173, 1703, 1704, 1705, 1706, 1707, 1708, 1709, 1710, 1715, 1716
 1717, 1718, 1721, 1777, 1778, 1779, 1780, 1781, 1782, 1783, 1784, 1822, 1823, 1824, 1825, 1826
 1827, 1828, 1829, 1830, 1831, 1832, 3931, 3932, 3933, 3934, 3935, 3936, 3937, 3938, 3945, 3946
 4068, 4069, 4070, 4071, 4072, 4073, 4074, 4075, 4076, 4077, 4078, 4079, 4080, 4081, 4082, 4083
 4084, 4085, 4086, 4087, 4088, 4089, 4090, 4201, 4202, 4203, 4204, 4205, 4206, 4207, 4208, 4209
 4210, 4211, 4212, 4213, 4214, 4215, 4216, 4217, 4218, 4219, 4220, 4221, 4222, 4223, 4224, 4225
 4226, 4227, 4228, 4229, 4230, 4231, 5251, 5252, 5253, 5254, 5255, 5256, 5257, 5258, 5259, 5260
 5261, 5262, 5263, 5264, 5265, 5266, 5267, 5268, 5269, 5270, 5271, 5272, 5273
*Elset, elset=Set-5, generate
 3857,  3924,     1
*Nset, nset=Set-6
  189,  195,  197,  293,  296,  297,  306,  310,  311,  317,  320,  321, 1217, 1218, 1224, 1225
 1226, 1227, 1228, 1229, 1230, 1231, 1721, 1742, 1743, 1744, 1745, 1746, 1747, 1748, 1749, 1750
 1751, 1752, 1755, 1783, 1784, 1796, 1797, 1798, 1799, 1800, 1801, 1822, 1825, 1826, 1833, 1834
 1835, 1836, 1837, 1838, 1839, 1840, 3997, 3998, 4017, 4018, 4019, 4020, 4021, 4022, 4023, 4024
 4122, 4123, 4124, 4125, 4126, 4127, 4128, 4129, 4130, 4131, 4132, 4133, 4134, 4135, 4136, 4137
 4138, 4139, 4140, 4141, 4142, 4143, 4144, 4145, 4146, 4147, 4148, 4230, 4231, 4232, 4233, 4234
 4235, 4236, 4237, 4238, 4239, 4240, 4241, 4242, 4243, 4244, 4245, 4246, 4247, 4248, 4249, 4250
 4251, 4252, 4253, 4254, 4255, 4256, 4257, 4258, 4259, 4260, 4261, 4262, 4263, 4264, 5274, 5275
 5276, 5277, 5278, 5279, 5280, 5281, 5282, 5283, 5284, 5285, 5286, 5287, 5288, 5289, 5290, 5291
 5292, 5293, 5294, 5295, 5296, 5297, 5298, 5299, 5300
*Elset, elset=Set-6, generate
 3925,  4000,     1
*Nset, nset=Set-7
  191,  193,  195,  197,  294,  295,  296,  297, 1195, 1196, 1197, 1198, 1199, 1200, 1201, 1202
 1215, 1216, 1224, 1225, 1226, 1227, 1228, 1229, 1230, 1231, 1232, 1233, 1727, 1731, 1732, 1733
 1734, 1735, 1736, 1737, 1738, 1739, 1740, 1741, 1744, 1745, 1746, 1747, 1748, 1749, 1750, 1751
 1752, 1753, 1754, 1755, 3119, 3120, 3121, 3122, 3123, 3124, 3125, 3126, 3127, 3128, 3129, 3130
 3131, 3132, 3133, 3134, 3982, 3983, 3984, 3985, 3986, 3987, 3988, 3989, 3999, 4000, 4001, 4002
 4003, 4004, 4005, 4006, 4007, 4008, 4009, 4010, 4011, 4012, 4013, 4014, 4015, 4016, 4017, 4018
 4019, 4020, 4021, 4022, 4023, 4024, 4025, 4026, 5157, 5158, 5159, 5160, 5161, 5162, 5163, 5164
 5165, 5166, 5167, 5168, 5169, 5170, 5171, 5172
*Elset, elset=Set-7, generate
 3543,  3596,     1
*Nset, nset=Set-8
  121,  189,  191,  195,  259,  293,  294,  296, 1174, 1175, 1184, 1185, 1215, 1216, 1217, 1218
 1529, 1719, 1720, 1721, 1725, 1726, 1727, 1740, 1741, 1742, 1743, 1744, 3107, 3108, 3109, 3110
 3943, 3944, 3953, 3954, 3993, 3994, 3995, 3996, 3997, 3998, 3999, 4000, 5153, 5154, 5155, 5156
*Elset, elset=Set-8, generate
 3525,  3542,     1
*Nset, nset=Set-9
  121,  122,  186,  189,  259,  260,  292,  293,  818,  819, 1154, 1155, 1172, 1173, 1174, 1175
 1526, 1527, 1528, 1529, 1711, 1712, 1716, 1717, 1718, 1719, 1720, 1721, 3019, 3020, 3021, 3022
 3570, 3571, 3929, 3930, 3939, 3940, 3941, 3942, 3943, 3944, 3945, 3946, 5119, 5120, 5121, 5122
*Elset, elset=Set-9, generate
 3411,  3428,     1
*Nset, nset=Set-10
  122,  183,  185,  186,  260,  290,  291,  292, 1123, 1124, 1125, 1126, 1127, 1128, 1129, 1130
 1146, 1147, 1148, 1149, 1150, 1151, 1152, 1153, 1154, 1155, 1156, 1157, 1528, 1691, 1692, 1693
 1694, 1695, 1696, 1697, 1698, 1702, 1703, 1704, 1705, 1706, 1707, 1708, 1709, 1710, 1711, 1712
 1713, 1714, 1715, 1716, 2975, 2976, 2977, 2978, 2979, 2980, 2981, 2982, 2983, 2984, 2985, 2986
 2987, 2988, 2989, 2990, 3903, 3904, 3905, 3906, 3907, 3908, 3909, 3910, 3911, 3912, 3913, 3914
 3915, 3916, 3917, 3918, 3919, 3920, 3921, 3922, 3923, 3924, 3925, 3926, 3927, 3928, 3929, 3930
 3931, 3932, 3933, 3934, 3935, 3936, 3937, 3938, 5103, 5104, 5105, 5106, 5107, 5108, 5109, 5110
 5111, 5112, 5113, 5114, 5115, 5116, 5117, 5118
*Elset, elset=Set-10, generate
 3357,  3410,     1
*Nset, nset=Set-11
   74,  119,  122,  181,  183,  236,  258,  260,  289,  290,  804,  805,  815,  816,  817, 1106
 1107, 1108, 1109, 1110, 1123, 1124, 1125, 1126, 1127, 1128, 1129, 1130, 1131, 1132, 1133, 1410
 1517, 1518, 1519, 1523, 1524, 1525, 1528, 1682, 1683, 1684, 1685, 1686, 1690, 1691, 1692, 1693
 1694, 1695, 1696, 1697, 1698, 1699, 1700, 1701, 1702, 2916, 2917, 2918, 2919, 2920, 2921, 2922
 2923, 2924, 2925, 2926, 2927, 2928, 2929, 2930, 2931, 2932, 2933, 2934, 2935, 2936, 2937, 2938
 2939, 3559, 3560, 3575, 3576, 3577, 3871, 3872, 3873, 3874, 3875, 3876, 3877, 3878, 3879, 3880
 3881, 3882, 3883, 3884, 3885, 3886, 3887, 3888, 3889, 3890, 3891, 3892, 3893, 3894, 3895, 3896
 3897, 3898, 3899, 3900, 3901, 3902, 3903, 3904, 3905, 3906, 3907, 3908, 3909, 3910, 5079, 5080
 5081, 5082, 5083, 5084, 5085, 5086, 5087, 5088, 5089, 5090, 5091, 5092, 5093, 5094, 5095, 5096
 5097, 5098, 5099, 5100, 5101, 5102
*Elset, elset=Set-11, generate
 3285,  3356,     1
*Nset, nset=Set-12
   73,   74,  121,  122,  235,  236,  259,  260,  606,  607,  812,  813,  814,  815,  816,  817
  818,  819, 1408, 1409, 1410, 1411, 1520, 1521, 1522, 1523, 1524, 1525, 1526, 1527, 1528, 1529
 2432, 2433, 2434, 2435, 2436, 2437, 3388, 3389, 3564, 3565, 3566, 3567, 3568, 3569, 3570, 3571
 3572, 3573, 3574, 3575, 3576, 3577, 4907, 4908, 4909, 4910, 4911, 4912
*Elset, elset=Set-12, generate
 2621,  2644,     1
*Nset, nset=Set-13
   73,  121,  125,  191,  235,  259,  261,  294,  812,  813,  814,  833,  834, 1181, 1182, 1183
 1184, 1185, 1411, 1520, 1521, 1522, 1529, 1533, 1534, 1535, 1722, 1723, 1724, 1725, 1726, 1727
 3031, 3032, 3033, 3034, 3035, 3036, 3572, 3573, 3574, 3584, 3585, 3947, 3948, 3949, 3950, 3951
 3952, 3953, 3954, 3955, 3956, 3957, 5123, 5124, 5125, 5126, 5127, 5128
*Elset, elset=Set-13, generate
 3429,  3452,     1
*Nset, nset=Set-14
  125,  127,  130,  191,  193,  261,  262,  264,  294,  295,  844,  845,  854,  855,  856,  857
  858, 1181, 1182, 1183, 1192, 1193, 1194, 1195, 1196, 1197, 1198, 1199, 1200, 1201, 1202, 1535
 1539, 1540, 1541, 1544, 1545, 1546, 1547, 1548, 1552, 1722, 1723, 1724, 1727, 1728, 1729, 1730
 1731, 1732, 1733, 1734, 1735, 1736, 1737, 1738, 1739, 3048, 3049, 3050, 3051, 3052, 3053, 3054
 3055, 3056, 3057, 3058, 3059, 3060, 3061, 3062, 3063, 3064, 3065, 3066, 3067, 3068, 3069, 3070
 3071, 3595, 3596, 3620, 3621, 3622, 3623, 3624, 3955, 3956, 3957, 3958, 3959, 3960, 3961, 3962
 3963, 3964, 3965, 3966, 3967, 3968, 3969, 3970, 3971, 3972, 3973, 3974, 3975, 3976, 3977, 3978
 3979, 3980, 3981, 3982, 3983, 3984, 3985, 3986, 3987, 3988, 3989, 3990, 3991, 3992, 5129, 5130
 5131, 5132, 5133, 5134, 5135, 5136, 5137, 5138, 5139, 5140, 5141, 5142, 5143, 5144, 5145, 5146
 5147, 5148, 5149, 5150, 5151, 5152
*Elset, elset=Set-14, generate
 3453,  3524,     1
*Nset, nset=Set-15
   79,   82,  127,  129,  130,  238,  240,  262,  263,  264,  638,  639,  841,  842,  843,  852
  853,  854,  855,  856,  857,  858,  859,  860,  861, 1421, 1424, 1425, 1428, 1536, 1537, 1538
 1541, 1542, 1543, 1544, 1545, 1546, 1547, 1548, 1549, 1550, 1551, 1552, 1553, 2486, 2487, 2488
 2489, 2490, 2491, 2492, 2493, 2494, 2495, 2496, 2497, 2498, 2499, 2500, 3420, 3421, 3597, 3598
 3599, 3600, 3601, 3602, 3603, 3604, 3605, 3606, 3607, 3608, 3609, 3610, 3611, 3612, 3613, 3614
 3615, 3616, 3617, 3618, 3619, 3620, 3621, 3622, 3623, 3624, 4925, 4926, 4927, 4928, 4929, 4930
 4931, 4932, 4933, 4934, 4935, 4936, 4937, 4938, 4939
*Elset, elset=Set-15, generate
 2693,  2740,     1
*Nset, nset=Set-16
   77,   79,  125,  127,  237,  238,  261,  262,  629,  630,  830,  831,  832,  841,  842,  843
  844,  845, 1416, 1419, 1420, 1421, 1530, 1531, 1532, 1535, 1536, 1537, 1538, 1539, 1540, 1541
 2469, 2470, 2471, 2472, 2473, 2474, 3408, 3409, 3586, 3587, 3588, 3589, 3590, 3591, 3592, 3593
 3594, 3595, 3596, 3597, 3598, 3599, 4919, 4920, 4921, 4922, 4923, 4924
*Elset, elset=Set-16, generate
 2669,  2692,     1
*Nset, nset=Set-17
   35,   73,   77,  125,  216,  235,  237,  261,  600,  601,  602,  620,  621,  830,  831,  832
  833,  834, 1319, 1402, 1403, 1404, 1411, 1414, 1415, 1416, 1530, 1531, 1532, 1533, 1534, 1535
 2452, 2453, 2454, 2455, 2456, 2457, 3390, 3391, 3392, 3400, 3401, 3578, 3579, 3580, 3581, 3582
 3583, 3584, 3585, 3586, 3587, 3588, 4913, 4914, 4915, 4916, 4917, 4918
*Elset, elset=Set-17, generate
 2645,  2668,     1
*Nset, nset=Set-18
   35,   36,   73,   74,  216,  217,  235,  236,  443,  444,  600,  601,  602,  603,  604,  605
  606,  607, 1316, 1317, 1318, 1319, 1402, 1403, 1404, 1405, 1406, 1407, 1408, 1409, 1410, 1411
 2162, 2163, 2164, 2165, 2166, 2167, 3251, 3252, 3382, 3383, 3384, 3385, 3386, 3387, 3388, 3389
 3390, 3391, 3392, 3393, 3394, 3395, 4819, 4820, 4821, 4822, 4823, 4824
*Elset, elset=Set-18, generate
 2243,  2266,     1
*Nset, nset=Set-19
   36,   71,   74,  119,  217,  234,  236,  258,  591,  592,  603,  604,  605,  801,  802,  803
  804,  805, 1318, 1397, 1398, 1401, 1405, 1406, 1407, 1410, 1514, 1515, 1516, 1517, 1518, 1519
 2415, 2416, 2417, 2418, 2419, 2420, 3380, 3381, 3393, 3394, 3395, 3553, 3554, 3555, 3556, 3557
 3558, 3559, 3560, 3561, 3562, 3563, 4901, 4902, 4903, 4904, 4905, 4906
*Elset, elset=Set-19, generate
 2597,  2620,     1
*Nset, nset=Set-20
   71,  116,  119,  179,  181,  234,  257,  258,  288,  289,  791,  792,  801,  802,  803, 1097
 1098, 1106, 1107, 1108, 1109, 1110, 1111, 1112, 1113, 1401, 1510, 1511, 1512, 1514, 1515, 1516
 1519, 1677, 1678, 1681, 1682, 1683, 1684, 1685, 1686, 1687, 1688, 1689, 1690, 2878, 2879, 2880
 2881, 2882, 2883, 2884, 2885, 2886, 2887, 2888, 2889, 2890, 2891, 2892, 3547, 3548, 3561, 3562
 3563, 3851, 3852, 3853, 3854, 3855, 3856, 3857, 3858, 3859, 3860, 3861, 3862, 3863, 3864, 3865
 3866, 3867, 3868, 3869, 3870, 3871, 3872, 3873, 3874, 3875, 5064, 5065, 5066, 5067, 5068, 5069
 5070, 5071, 5072, 5073, 5074, 5075, 5076, 5077, 5078
*Elset, elset=Set-20, generate
 3237,  3284,     1
*Nset, nset=Set-21
  115,  116,  177,  179,  256,  257,  287,  288,  789,  790, 1084, 1085, 1097, 1098, 1099, 1100
 1508, 1509, 1512, 1513, 1670, 1671, 1676, 1677, 1678, 1679, 1680, 1681, 2866, 2867, 2868, 2869
 3551, 3552, 3843, 3844, 3845, 3846, 3847, 3848, 3849, 3850, 3851, 3852, 5060, 5061, 5062, 5063
*Elset, elset=Set-21, generate
 3219,  3236,     1
*Nset, nset=Set-22
   69,   71,  115,  116,  233,  234,  256,  257,  593,  594,  787,  788,  789,  790,  791,  792
 1396, 1399, 1400, 1401, 1506, 1507, 1508, 1509, 1510, 1511, 1512, 1513, 2401, 2402, 2403, 2404
 3378, 3379, 3543, 3544, 3545, 3546, 3547, 3548, 3549, 3550, 3551, 3552, 4897, 4898, 4899, 4900
*Elset, elset=Set-22, generate
 2579,  2596,     1
*Nset, nset=Set-23
   31,   36,   69,   71,  214,  217,  233,  234,  441,  442,  582,  583,  591,  592,  593,  594
 1310, 1314, 1315, 1318, 1392, 1393, 1396, 1397, 1398, 1399, 1400, 1401, 2150, 2151, 2152, 2153
 3255, 3256, 3372, 3373, 3374, 3375, 3376, 3377, 3378, 3379, 3380, 3381, 4815, 4816, 4817, 4818
*Elset, elset=Set-23, generate
 2225,  2242,     1
*Nset, nset=Set-24
   31,   32,   35,   36,  214,  215,  216,  217,  425,  426,  439,  440,  441,  442,  443,  444
 1304, 1305, 1310, 1311, 1312, 1313, 1314, 1315, 1316, 1317, 1318, 1319, 1963, 1964, 1965, 1966
 3245, 3246, 3247, 3248, 3249, 3250, 3251, 3252, 3253, 3254, 3255, 3256, 4755, 4756, 4757, 4758
*Elset, elset=Set-24, generate
 1961,  1978,     1
*Nset, nset=Set-25
   32,   35,   39,   77,  215,  216,  218,  237,  439,  440,  455,  456,  618,  619,  620,  621
 1311, 1312, 1313, 1319, 1322, 1323, 1324, 1412, 1413, 1414, 1415, 1416, 2182, 2183, 2184, 2185
 3253, 3254, 3261, 3262, 3396, 3397, 3398, 3399, 3400, 3401, 3402, 3403, 4825, 4826, 4827, 4828
*Elset, elset=Set-25, generate
 2267,  2284,     1
*Nset, nset=Set-26
   39,   42,   77,   79,  218,  220,  237,  238,  464,  465,  618,  619,  627,  628,  629,  630
 1324, 1327, 1328, 1331, 1412, 1413, 1416, 1417, 1418, 1419, 1420, 1421, 2194, 2195, 2196, 2197
 3273, 3274, 3402, 3403, 3404, 3405, 3406, 3407, 3408, 3409, 3410, 3411, 4829, 4830, 4831, 4832
*Elset, elset=Set-26, generate
 2285,  2302,     1
*Nset, nset=Set-27
   42,   79,   81,   82,  220,  238,  239,  240,  627,  628,  636,  637,  638,  639,  640,  641
 1331, 1417, 1418, 1421, 1422, 1423, 1424, 1425, 1426, 1427, 1428, 1429, 2206, 2207, 2208, 2209
 3410, 3411, 3412, 3413, 3414, 3415, 3416, 3417, 3418, 3419, 3420, 3421, 4833, 4834, 4835, 4836
*Elset, elset=Set-27, generate
 2303,  2320,     1
*Nset, nset=Set-28
   81,   82,  129,  133,  239,  240,  263,  265,  640,  641,  852,  853,  874,  875,  876,  877
 1426, 1427, 1428, 1429, 1542, 1543, 1553, 1554, 1555, 1556, 1557, 1558, 2526, 2527, 2528, 2529
 3416, 3417, 3618, 3619, 3625, 3626, 3627, 3628, 3629, 3630, 3631, 3632, 4940, 4941, 4942, 4943
*Elset, elset=Set-28, generate
 2741,  2758,     1
*Nset, nset=Set-29
   81,   85,  133,  135,  239,  241,  265,  266,  652,  653,  874,  875,  883,  884,  885,  886
 1429, 1432, 1433, 1434, 1554, 1555, 1558, 1559, 1560, 1561, 1562, 1563, 2538, 2539, 2540, 2541
 3426, 3427, 3631, 3632, 3633, 3634, 3635, 3636, 3637, 3638, 3639, 3640, 4944, 4945, 4946, 4947
*Elset, elset=Set-29, generate
 2759,  2776,     1
*Nset, nset=Set-30
   41,   42,   81,   85,  219,  220,  239,  241,  466,  467,  636,  637,  650,  651,  652,  653
 1329, 1330, 1331, 1332, 1422, 1423, 1429, 1430, 1431, 1432, 1433, 1434, 2220, 2221, 2222, 2223
 3269, 3270, 3418, 3419, 3422, 3423, 3424, 3425, 3426, 3427, 3428, 3429, 4837, 4838, 4839, 4840
*Elset, elset=Set-30, generate
 2321,  2338,     1
*Nset, nset=Set-31
    2,   39,   41,   42,  200,  218,  219,  220,  453,  454,  462,  463,  464,  465,  466,  467
 1256, 1320, 1321, 1324, 1325, 1326, 1327, 1328, 1329, 1330, 1331, 1332, 1989, 1990, 1991, 1992
 3263, 3264, 3265, 3266, 3267, 3268, 3269, 3270, 3271, 3272, 3273, 3274, 4763, 4764, 4765, 4766
*Elset, elset=Set-31, generate
 1997,  2014,     1
*Nset, nset=Set-32
    1,    2,   32,   39,  199,  200,  215,  218,  322,  323,  427,  428,  453,  454,  455,  456
 1245, 1246, 1254, 1256, 1306, 1307, 1311, 1320, 1321, 1322, 1323, 1324, 1977, 1978, 1979, 1980
 3169, 3170, 3243, 3244, 3257, 3258, 3259, 3260, 3261, 3262, 3263, 3264, 4759, 4760, 4761, 4762
*Elset, elset=Set-32, generate
 1979,  1996,     1
*Nset, nset=Set-33
    1,   29,   31,   32,  199,  213,  214,  215,  416,  417,  425,  426,  427,  428,  429,  430
 1254, 1299, 1300, 1303, 1304, 1305, 1306, 1307, 1308, 1309, 1310, 1311, 1949, 1950, 1951, 1952
 3235, 3236, 3237, 3238, 3239, 3240, 3241, 3242, 3243, 3244, 3245, 3246, 4751, 4752, 4753, 4754
*Elset, elset=Set-33, generate
 1943,  1960,     1
*Nset, nset=Set-34
   29,   31,   67,   69,  213,  214,  232,  233,  429,  430,  573,  574,  582,  583,  584,  585
 1303, 1308, 1309, 1310, 1387, 1388, 1391, 1392, 1393, 1394, 1395, 1396, 2138, 2139, 2140, 2141
 3241, 3242, 3364, 3365, 3366, 3367, 3368, 3369, 3370, 3371, 3372, 3373, 4811, 4812, 4813, 4814
*Elset, elset=Set-34, generate
 2207,  2224,     1
*Nset, nset=Set-35
   67,   69,  113,  115,  232,  233,  255,  256,  584,  585,  778,  779,  787,  788, 1086, 1087
 1391, 1394, 1395, 1396, 1501, 1502, 1505, 1506, 1507, 1513, 1672, 1673, 3370, 3371, 3541, 3542
 3549, 3550, 3841, 3842, 4027, 4028, 4029, 4030, 4035, 4036, 4037, 4038, 5177, 5178, 5179, 5180
*Elset, elset=Set-35, generate
 3615,  3632,     1
*Nset, nset=Set-36
  113,  115,  175,  177,  255,  256,  286,  287, 1075, 1076, 1084, 1085, 1086, 1087, 1088, 1089
 1505, 1513, 1665, 1666, 1669, 1670, 1671, 1672, 1673, 1674, 1675, 1676, 2852, 2853, 2854, 2855
 3833, 3834, 3835, 3836, 3837, 3838, 3839, 3840, 3841, 3842, 3843, 3844, 5056, 5057, 5058, 5059
*Elset, elset=Set-36, generate
 3201,  3218,     1
*Nset, nset=Set-37
  111,  113,  173,  175,  254,  255,  285,  286,  780,  781, 1066, 1067, 1075, 1076, 1077, 1078
 1500, 1503, 1504, 1505, 1660, 1661, 1664, 1665, 1666, 1667, 1668, 1669, 2840, 2841, 2842, 2843
 3539, 3540, 3825, 3826, 3827, 3828, 3829, 3830, 3831, 3832, 3833, 3834, 5052, 5053, 5054, 5055
*Elset, elset=Set-37, generate
 3183,  3200,     1
*Nset, nset=Set-38
   65,   67,  111,  113,  231,  232,  254,  255,  575,  576,  769,  770,  778,  779,  780,  781
 1386, 1389, 1390, 1391, 1496, 1497, 1500, 1501, 1502, 1503, 1504, 1505, 2389, 2390, 2391, 2392
 3362, 3363, 3533, 3534, 3535, 3536, 3537, 3538, 3539, 3540, 3541, 3542, 4893, 4894, 4895, 4896
*Elset, elset=Set-38, generate
 2561,  2578,     1
*Nset, nset=Set-39
   27,   29,   65,   67,  212,  213,  231,  232,  418,  419,  564,  565,  573,  574,  575,  576
 1298, 1301, 1302, 1303, 1382, 1383, 1386, 1387, 1388, 1389, 1390, 1391, 2126, 2127, 2128, 2129
 3233, 3234, 3356, 3357, 3358, 3359, 3360, 3361, 3362, 3363, 3364, 3365, 4807, 4808, 4809, 4810
*Elset, elset=Set-39, generate
 2189,  2206,     1
*Nset, nset=Set-40
    1,    4,   27,   29,  199,  202,  212,  213,  328,  329,  407,  408,  416,  417,  418,  419
 1251, 1252, 1253, 1254, 1294, 1295, 1298, 1299, 1300, 1301, 1302, 1303, 1937, 1938, 1939, 1940
 3165, 3166, 3227, 3228, 3229, 3230, 3231, 3232, 3233, 3234, 3235, 3236, 4747, 4748, 4749, 4750
*Elset, elset=Set-40, generate
 1925,  1942,     1
*Nset, nset=Set-41
    1,    2,    3,    4,  199,  200,  201,  202,  322,  323,  324,  325,  326,  327,  328,  329
 1245, 1246, 1247, 1248, 1249, 1250, 1251, 1252, 1253, 1254, 1255, 1256, 1841, 1842, 1843, 1844
 3161, 3162, 3163, 3164, 3165, 3166, 3167, 3168, 3169, 3170, 3171, 3172, 4719, 4720, 4721, 4722
*Elset, elset=Set-41, generate
 1799,  1816,     1
*Nset, nset=Set-42
    2,    3,   41,   45,  200,  201,  219,  221,  324,  325,  462,  463,  476,  477,  478,  479
 1247, 1248, 1255, 1256, 1325, 1326, 1332, 1333, 1334, 1335, 1336, 1337, 2003, 2004, 2005, 2006
 3167, 3168, 3271, 3272, 3275, 3276, 3277, 3278, 3279, 3280, 3281, 3282, 4767, 4768, 4769, 4770
*Elset, elset=Set-42, generate
 2015,  2032,     1
*Nset, nset=Set-43
   41,   45,   85,   87,  219,  221,  241,  242,  478,  479,  650,  651,  659,  660,  661,  662
 1332, 1335, 1336, 1337, 1430, 1431, 1434, 1435, 1436, 1437, 1438, 1439, 2232, 2233, 2234, 2235
 3279, 3280, 3428, 3429, 3430, 3431, 3432, 3433, 3434, 3435, 3436, 3437, 4841, 4842, 4843, 4844
*Elset, elset=Set-43, generate
 2339,  2356,     1
*Nset, nset=Set-44
   85,   87,  135,  137,  241,  242,  266,  267,  661,  662,  883,  884,  892,  893,  894,  895
 1434, 1437, 1438, 1439, 1559, 1560, 1563, 1564, 1565, 1566, 1567, 1568, 2550, 2551, 2552, 2553
 3434, 3435, 3639, 3640, 3641, 3642, 3643, 3644, 3645, 3646, 3647, 3648, 4948, 4949, 4950, 4951
*Elset, elset=Set-44, generate
 2777,  2794,     1
*Nset, nset=Set-45
   87,   89,  137,  139,  242,  243,  267,  268,  670,  671,  892,  893,  901,  902,  903,  904
 1439, 1442, 1443, 1444, 1564, 1565, 1568, 1569, 1570, 1571, 1572, 1573, 2562, 2563, 2564, 2565
 3442, 3443, 3647, 3648, 3649, 3650, 3651, 3652, 3653, 3654, 3655, 3656, 4952, 4953, 4954, 4955
*Elset, elset=Set-45, generate
 2795,  2812,     1
*Nset, nset=Set-46
   45,   47,   87,   89,  221,  222,  242,  243,  487,  488,  659,  660,  668,  669,  670,  671
 1337, 1340, 1341, 1342, 1435, 1436, 1439, 1440, 1441, 1442, 1443, 1444, 2244, 2245, 2246, 2247
 3287, 3288, 3436, 3437, 3438, 3439, 3440, 3441, 3442, 3443, 3444, 3445, 4845, 4846, 4847, 4848
*Elset, elset=Set-46, generate
 2357,  2374,     1
*Nset, nset=Set-47
    3,   10,   45,   47,  201,  204,  221,  222,  344,  345,  476,  477,  485,  486,  487,  488
 1255, 1259, 1260, 1263, 1333, 1334, 1337, 1338, 1339, 1340, 1341, 1342, 2015, 2016, 2017, 2018
 3181, 3182, 3281, 3282, 3283, 3284, 3285, 3286, 3287, 3288, 3289, 3290, 4771, 4772, 4773, 4774
*Elset, elset=Set-47, generate
 2033,  2050,     1
*Nset, nset=Set-48
    3,    4,    9,   10,  201,  202,  203,  204,  326,  327,  342,  343,  344,  345,  346,  347
 1249, 1250, 1253, 1255, 1257, 1258, 1259, 1260, 1261, 1262, 1263, 1264, 1857, 1858, 1859, 1860
 3171, 3172, 3173, 3174, 3175, 3176, 3177, 3178, 3179, 3180, 3181, 3182, 4723, 4724, 4725, 4726
*Elset, elset=Set-48, generate
 1817,  1834,     1
*Nset, nset=Set-49
    4,    9,   25,   27,  202,  203,  211,  212,  342,  343,  400,  401,  407,  408,  409,  410
 1253, 1257, 1258, 1264, 1291, 1292, 1293, 1294, 1295, 1296, 1297, 1298, 1925, 1926, 1927, 1928
 3179, 3180, 3217, 3218, 3221, 3222, 3223, 3224, 3225, 3226, 3227, 3228, 4743, 4744, 4745, 4746
*Elset, elset=Set-49, generate
 1907,  1924,     1
*Nset, nset=Set-50
   25,   27,   63,   65,  211,  212,  230,  231,  409,  410,  555,  556,  564,  565,  566,  567
 1293, 1296, 1297, 1298, 1377, 1378, 1381, 1382, 1383, 1384, 1385, 1386, 2114, 2115, 2116, 2117
 3225, 3226, 3348, 3349, 3350, 3351, 3352, 3353, 3354, 3355, 3356, 3357, 4803, 4804, 4805, 4806
*Elset, elset=Set-50, generate
 2171,  2188,     1
*Nset, nset=Set-51
   63,   65,  109,  111,  230,  231,  253,  254,  566,  567,  760,  761,  769,  770,  771,  772
 1381, 1384, 1385, 1386, 1491, 1492, 1495, 1496, 1497, 1498, 1499, 1500, 2377, 2378, 2379, 2380
 3354, 3355, 3525, 3526, 3527, 3528, 3529, 3530, 3531, 3532, 3533, 3534, 4889, 4890, 4891, 4892
*Elset, elset=Set-51, generate
 2543,  2560,     1
*Nset, nset=Set-52
  109,  111,  171,  173,  253,  254,  284,  285,  771,  772, 1057, 1058, 1066, 1067, 1068, 1069
 1495, 1498, 1499, 1500, 1655, 1656, 1659, 1660, 1661, 1662, 1663, 1664, 2828, 2829, 2830, 2831
 3531, 3532, 3817, 3818, 3819, 3820, 3821, 3822, 3823, 3824, 3825, 3826, 5048, 5049, 5050, 5051
*Elset, elset=Set-52, generate
 3165,  3182,     1
*Nset, nset=Set-53
  105,  109,  169,  171,  251,  253,  283,  284,  762,  763, 1048, 1049, 1057, 1058, 1059, 1060
 1490, 1493, 1494, 1495, 1650, 1651, 1654, 1655, 1656, 1657, 1658, 1659, 2816, 2817, 2818, 2819
 3523, 3524, 3809, 3810, 3811, 3812, 3813, 3814, 3815, 3816, 3817, 3818, 5044, 5045, 5046, 5047
*Elset, elset=Set-53, generate
 3147,  3164,     1
*Nset, nset=Set-54
   60,   63,  105,  109,  229,  230,  251,  253,  557,  558,  746,  747,  760,  761,  762,  763
 1376, 1379, 1380, 1381, 1483, 1484, 1490, 1491, 1492, 1493, 1494, 1495, 2365, 2366, 2367, 2368
 3346, 3347, 3515, 3516, 3519, 3520, 3521, 3522, 3523, 3524, 3525, 3526, 4885, 4886, 4887, 4888
*Elset, elset=Set-54, generate
 2525,  2542,     1
*Nset, nset=Set-55
   22,   25,   60,   63,  210,  211,  229,  230,  398,  399,  543,  544,  555,  556,  557,  558
 1288, 1289, 1290, 1293, 1371, 1372, 1376, 1377, 1378, 1379, 1380, 1381, 2102, 2103, 2104, 2105
 3219, 3220, 3338, 3339, 3342, 3343, 3344, 3345, 3346, 3347, 3348, 3349, 4799, 4800, 4801, 4802
*Elset, elset=Set-55, generate
 2153,  2170,     1
*Nset, nset=Set-56
    9,   14,   22,   25,  203,  206,  210,  211,  358,  359,  386,  387,  398,  399,  400,  401
 1264, 1267, 1268, 1272, 1283, 1284, 1288, 1289, 1290, 1291, 1292, 1293, 1913, 1914, 1915, 1916
 3189, 3190, 3209, 3210, 3213, 3214, 3215, 3216, 3217, 3218, 3219, 3220, 4739, 4740, 4741, 4742
*Elset, elset=Set-56, generate
 1889,  1906,     1
*Nset, nset=Set-57
    9,   10,   13,   14,  203,  204,  205,  206,  346,  347,  356,  357,  358,  359,  360,  361
 1261, 1262, 1263, 1264, 1265, 1266, 1267, 1268, 1269, 1270, 1271, 1272, 1871, 1872, 1873, 1874
 3177, 3178, 3183, 3184, 3185, 3186, 3187, 3188, 3189, 3190, 3191, 3192, 4727, 4728, 4729, 4730
*Elset, elset=Set-57, generate
 1835,  1852,     1
*Nset, nset=Set-58
   10,   13,   47,   49,  204,  205,  222,  223,  360,  361,  485,  486,  494,  495,  496,  497
 1263, 1269, 1270, 1271, 1338, 1339, 1342, 1343, 1344, 1345, 1346, 1347, 2027, 2028, 2029, 2030
 3187, 3188, 3289, 3290, 3291, 3292, 3293, 3294, 3295, 3296, 3297, 3298, 4775, 4776, 4777, 4778
*Elset, elset=Set-58, generate
 2051,  2068,     1
*Nset, nset=Set-59
   47,   49,   89,   91,  222,  223,  243,  244,  496,  497,  668,  669,  677,  678,  679,  680
 1342, 1345, 1346, 1347, 1440, 1441, 1444, 1445, 1446, 1447, 1448, 1449, 2256, 2257, 2258, 2259
 3295, 3296, 3444, 3445, 3446, 3447, 3448, 3449, 3450, 3451, 3452, 3453, 4849, 4850, 4851, 4852
*Elset, elset=Set-59, generate
 2375,  2392,     1
*Nset, nset=Set-60
   89,   91,  139,  141,  243,  244,  268,  269,  679,  680,  901,  902,  910,  911,  912,  913
 1444, 1447, 1448, 1449, 1569, 1570, 1573, 1574, 1575, 1576, 1577, 1578, 2574, 2575, 2576, 2577
 3450, 3451, 3655, 3656, 3657, 3658, 3659, 3660, 3661, 3662, 3663, 3664, 4956, 4957, 4958, 4959
*Elset, elset=Set-60, generate
 2813,  2830,     1
*Nset, nset=Set-61
   91,   93,  141,  143,  244,  245,  269,  270,  686,  687,  910,  911,  919,  920,  921,  922
 1449, 1450, 1451, 1454, 1574, 1575, 1578, 1579, 1580, 1581, 1582, 1583, 2586, 2587, 2588, 2589
 3460, 3461, 3663, 3664, 3665, 3666, 3667, 3668, 3669, 3670, 3671, 3672, 4960, 4961, 4962, 4963
*Elset, elset=Set-61, generate
 2831,  2848,     1
*Nset, nset=Set-62
   49,   51,   91,   93,  223,  224,  244,  245,  505,  506,  677,  678,  686,  687,  688,  689
 1347, 1350, 1351, 1352, 1445, 1446, 1449, 1450, 1451, 1452, 1453, 1454, 2268, 2269, 2270, 2271
 3303, 3304, 3452, 3453, 3454, 3455, 3456, 3457, 3458, 3459, 3460, 3461, 4853, 4854, 4855, 4856
*Elset, elset=Set-62, generate
 2393,  2410,     1
*Nset, nset=Set-63
   13,   18,   49,   51,  205,  208,  223,  224,  372,  373,  494,  495,  503,  504,  505,  506
 1271, 1275, 1276, 1279, 1343, 1344, 1347, 1348, 1349, 1350, 1351, 1352, 2039, 2040, 2041, 2042
 3201, 3202, 3297, 3298, 3299, 3300, 3301, 3302, 3303, 3304, 3305, 3306, 4779, 4780, 4781, 4782
*Elset, elset=Set-63, generate
 2069,  2086,     1
*Nset, nset=Set-64
   13,   14,   17,   18,  205,  206,  207,  208,  356,  357,  370,  371,  372,  373,  374,  375
 1265, 1266, 1271, 1272, 1273, 1274, 1275, 1276, 1277, 1278, 1279, 1280, 1885, 1886, 1887, 1888
 3191, 3192, 3193, 3194, 3195, 3196, 3197, 3198, 3199, 3200, 3201, 3202, 4731, 4732, 4733, 4734
*Elset, elset=Set-64, generate
 1853,  1870,     1
*Nset, nset=Set-65
   14,   17,   21,   22,  206,  207,  209,  210,  370,  371,  384,  385,  386,  387,  388,  389
 1272, 1273, 1274, 1280, 1281, 1282, 1283, 1284, 1285, 1286, 1287, 1288, 1899, 1900, 1901, 1902
 3199, 3200, 3203, 3204, 3205, 3206, 3207, 3208, 3209, 3210, 3211, 3212, 4735, 4736, 4737, 4738
*Elset, elset=Set-65, generate
 1871,  1888,     1
*Nset, nset=Set-66
   59,   60,  105,  106,  228,  229,  251,  252,  541,  542,  746,  747,  748,  749,  750,  751
 1369, 1370, 1375, 1376, 1483, 1484, 1485, 1486, 1487, 1488, 1489, 1490, 2351, 2352, 2353, 2354
 3340, 3341, 3509, 3510, 3511, 3512, 3513, 3514, 3515, 3516, 3517, 3518, 4881, 4882, 4883, 4884
*Elset, elset=Set-66, generate
 2507,  2524,     1
*Nset, nset=Set-67
   21,   22,   59,   60,  209,  210,  228,  229,  384,  385,  541,  542,  543,  544,  545,  546
 1281, 1282, 1287, 1288, 1369, 1370, 1371, 1372, 1373, 1374, 1375, 1376, 2088, 2089, 2090, 2091
 3211, 3212, 3332, 3333, 3334, 3335, 3336, 3337, 3338, 3339, 3340, 3341, 4795, 4796, 4797, 4798
*Elset, elset=Set-67, generate
 2135,  2152,     1
*Nset, nset=Set-68
  105,  106,  167,  169,  251,  252,  282,  283,  750,  751, 1037, 1038, 1048, 1049, 1050, 1051
 1487, 1488, 1489, 1490, 1644, 1645, 1649, 1650, 1651, 1652, 1653, 1654, 2804, 2805, 2806, 2807
 3513, 3514, 3801, 3802, 3803, 3804, 3805, 3806, 3807, 3808, 3809, 3810, 5040, 5041, 5042, 5043
*Elset, elset=Set-68, generate
 3129,  3146,     1
*Nset, nset=Set-69
   59,  103,  106,  165,  167,  228,  250,  252,  281,  282,  737,  738,  739,  748,  749, 1023
 1024, 1025, 1026, 1027, 1037, 1038, 1039, 1040, 1041, 1375, 1479, 1480, 1481, 1482, 1485, 1486
 1489, 1635, 1636, 1637, 1638, 1639, 1640, 1644, 1645, 1646, 1647, 1648, 1649, 2769, 2770, 2771
 2772, 2773, 2774, 2775, 2776, 2777, 2778, 2779, 2780, 2781, 2782, 2783, 3504, 3505, 3506, 3517
 3518, 3769, 3770, 3771, 3772, 3773, 3783, 3784, 3785, 3786, 3787, 3788, 3789, 3790, 3791, 3792
 3793, 3794, 3795, 3796, 3797, 3798, 3799, 3800, 3801, 3802, 5025, 5026, 5027, 5028, 5029, 5030
 5031, 5032, 5033, 5034, 5035, 5036, 5037, 5038, 5039
*Elset, elset=Set-69, generate
 3081,  3128,     1
*Nset, nset=Set-70
   21,   57,   59,  103,  209,  227,  228,  250,  530,  531,  532,  545,  546,  735,  736,  737
  738,  739, 1287, 1363, 1364, 1365, 1368, 1373, 1374, 1375, 1477, 1478, 1479, 1480, 1481, 1482
 2334, 2335, 2336, 2337, 2338, 2339, 3329, 3330, 3331, 3336, 3337, 3498, 3499, 3500, 3501, 3502
 3503, 3504, 3505, 3506, 3507, 3508, 4875, 4876, 4877, 4878, 4879, 4880
*Elset, elset=Set-70, generate
 2483,  2506,     1
*Nset, nset=Set-71
   17,   18,   53,   54,  207,  208,  225,  226,  374,  375,  512,  513,  514,  515,  516,  517
  518,  519, 1277, 1278, 1279, 1280, 1353, 1354, 1355, 1356, 1357, 1358, 1359, 1360, 1361, 1362
 2051, 2052, 2053, 2054, 2055, 2056, 3197, 3198, 3307, 3308, 3309, 3310, 3311, 3312, 3313, 3314
 3315, 3316, 3317, 3318, 3319, 3320, 4783, 4784, 4785, 4786, 4787, 4788
*Elset, elset=Set-71, generate
 2087,  2110,     1
*Nset, nset=Set-72
   17,   21,   54,   57,  207,  209,  226,  227,  388,  389,  514,  515,  516,  530,  531,  532
  533,  534, 1280, 1285, 1286, 1287, 1355, 1356, 1357, 1362, 1363, 1364, 1365, 1366, 1367, 1368
 2071, 2072, 2073, 2074, 2075, 2076, 3207, 3208, 3316, 3317, 3318, 3321, 3322, 3323, 3324, 3325
 3326, 3327, 3328, 3329, 3330, 3331, 4789, 4790, 4791, 4792, 4793, 4794
*Elset, elset=Set-72, generate
 2111,  2134,     1
*Nset, nset=Set-73
   18,   51,   53,   95,  208,  224,  225,  246,  503,  504,  517,  518,  519,  695,  696,  697
  698,  699, 1279, 1348, 1349, 1352, 1358, 1359, 1360, 1361, 1455, 1456, 1457, 1458, 1459, 1460
 2280, 2281, 2282, 2283, 2284, 2285, 3305, 3306, 3313, 3314, 3315, 3462, 3463, 3464, 3465, 3466
 3467, 3468, 3469, 3470, 3471, 3472, 4857, 4858, 4859, 4860, 4861, 4862
*Elset, elset=Set-73, generate
 2411,  2434,     1
*Nset, nset=Set-74
   51,   93,   95,  143,  145,  224,  245,  246,  270,  271,  688,  689,  695,  696,  697,  919
  920,  928,  929,  930,  931,  932,  933,  934,  935, 1352, 1452, 1453, 1454, 1455, 1456, 1457
 1460, 1579, 1580, 1583, 1584, 1585, 1586, 1587, 1588, 1589, 1590, 1591, 1592, 2598, 2599, 2600
 2601, 2602, 2603, 2604, 2605, 2606, 2607, 2608, 2609, 2610, 2611, 2612, 3458, 3459, 3470, 3471
 3472, 3671, 3672, 3673, 3674, 3675, 3676, 3677, 3678, 3679, 3680, 3681, 3682, 3683, 3684, 3685
 3686, 3687, 3688, 3689, 3690, 3691, 3692, 3693, 3694, 3695, 4964, 4965, 4966, 4967, 4968, 4969
 4970, 4971, 4972, 4973, 4974, 4975, 4976, 4977, 4978
*Elset, elset=Set-74, generate
 2849,  2896,     1
*Nset, nset=Set-75
   95,  145,  147,  246,  271,  272,  928,  929,  930,  931,  932,  945,  946,  947,  948,  949
  950, 1460, 1584, 1585, 1586, 1587, 1588, 1592, 1593, 1594, 1595, 1596, 1597, 1598, 1599, 2636
 2637, 2638, 2639, 2640, 2641, 2642, 2643, 2644, 3691, 3692, 3693, 3694, 3695, 3696, 3697, 3698
 3699, 3700, 3701, 3702, 3703, 3704, 3705, 3706, 3707, 3708, 3709, 3710, 4979, 4980, 4981, 4982
 4983, 4984, 4985, 4986, 4987
*Elset, elset=Set-75, generate
 2897,  2926,     1
*Nset, nset=Set-76
   53,   95,   98,  147,  149,  225,  246,  248,  272,  273,  698,  699,  709,  710,  711,  948
  949,  950,  958,  959,  960, 1361, 1458, 1459, 1460, 1464, 1465, 1466, 1469, 1593, 1594, 1595
 1596, 1600, 1601, 1602, 1603, 2660, 2661, 2662, 2663, 2664, 2665, 3468, 3469, 3484, 3485, 3486
 3699, 3700, 3701, 3711, 3712, 3713, 3714, 3715, 3716, 3717, 3718, 3719, 4988, 4989, 4990, 4991
 4992, 4993
*Elset, elset=Set-76, generate
 2927,  2952,     1
*Nset, nset=Set-77
   53,   54,   97,   98,  225,  226,  247,  248,  512,  513,  706,  707,  708,  709,  710,  711
  712,  713, 1353, 1354, 1361, 1362, 1461, 1462, 1463, 1464, 1465, 1466, 1467, 1468, 1469, 1470
 2297, 2298, 2299, 2300, 2301, 2302, 3319, 3320, 3473, 3474, 3475, 3476, 3477, 3478, 3479, 3480
 3481, 3482, 3483, 3484, 3485, 3486, 4863, 4864, 4865, 4866, 4867, 4868
*Elset, elset=Set-77, generate
 2435,  2458,     1
*Nset, nset=Set-78
   54,   57,   97,  101,  226,  227,  247,  249,  533,  534,  706,  707,  708,  724,  725,  726
  727,  728, 1362, 1366, 1367, 1368, 1461, 1462, 1463, 1470, 1471, 1472, 1473, 1474, 1475, 1476
 2317, 2318, 2319, 2320, 2321, 2322, 3327, 3328, 3481, 3482, 3483, 3487, 3488, 3489, 3490, 3491
 3492, 3493, 3494, 3495, 3496, 3497, 4869, 4870, 4871, 4872, 4873, 4874
*Elset, elset=Set-78, generate
 2459,  2482,     1
*Nset, nset=Set-79
  103,  163,  165,  250,  280,  281, 1012, 1013, 1014, 1020, 1021, 1022, 1023, 1024, 1025, 1026
 1027, 1482, 1630, 1631, 1632, 1633, 1635, 1636, 1637, 1638, 1639, 1640, 1641, 1642, 1643, 2743
 2744, 2745, 2746, 2747, 2748, 2749, 2750, 2751, 3757, 3758, 3759, 3766, 3767, 3768, 3769, 3770
 3771, 3772, 3773, 3774, 3775, 3776, 3777, 3778, 3779, 3780, 3781, 3782, 5016, 5017, 5018, 5019
 5020, 5021, 5022, 5023, 5024
*Elset, elset=Set-79, generate
 3051,  3080,     1
*Nset, nset=Set-80
   57,  101,  103,  161,  163,  227,  249,  250,  279,  280,  726,  727,  728,  735,  736, 1003
 1004, 1011, 1012, 1013, 1014, 1368, 1473, 1474, 1475, 1476, 1477, 1478, 1482, 1624, 1625, 1626
 1630, 1631, 1632, 1633, 1634, 2727, 2728, 2729, 2730, 2731, 2732, 3493, 3494, 3495, 3507, 3508
 3750, 3751, 3756, 3757, 3758, 3759, 3760, 3761, 3762, 3763, 3764, 3765, 5010, 5011, 5012, 5013
 5014, 5015
*Elset, elset=Set-80, generate
 3025,  3050,     1
*Nset, nset=Set-81
  101,  157,  161,  249,  277,  279,  989,  990, 1000, 1001, 1002, 1003, 1004, 1476, 1617, 1619
 1620, 1624, 1625, 1626, 1627, 1628, 1629, 2714, 2715, 2716, 2717, 3739, 3740, 3747, 3748, 3749
 3750, 3751, 3752, 3753, 3754, 3755, 5006, 5007, 5008, 5009
*Elset, elset=Set-81, generate
 3009,  3024,     1
*Nset, nset=Set-82
   97,  101,  154,  157,  158,  247,  249,  275,  277,  278,  724,  725,  980,  981,  988,  989
  990,  992,  993, 1470, 1471, 1472, 1476, 1611, 1614, 1615, 1617, 1618, 1619, 1620, 1621, 1622
 1623, 2701, 2702, 2703, 2704, 3496, 3497, 3732, 3733, 3738, 3739, 3740, 3741, 3742, 3743, 3744
 3745, 3746, 5002, 5003, 5004, 5005
*Elset, elset=Set-82, generate
 2989,  3008,     1
*Nset, nset=Set-83
   97,   98,  151,  153,  154,  247,  248,  274,  275,  276,  712,  713,  968,  969,  976,  977
  978,  980,  981, 1467, 1468, 1469, 1470, 1604, 1605, 1606, 1610, 1611, 1612, 1613, 1614, 1615
 1616, 2688, 2689, 2690, 2691, 3479, 3480, 3723, 3724, 3729, 3730, 3731, 3732, 3733, 3734, 3735
 3736, 3737, 4998, 4999, 5000, 5001
*Elset, elset=Set-83, generate
 2969,  2988,     1
*Nset, nset=Set-84
   98,  149,  151,  248,  273,  274,  959,  960,  965,  966,  967,  968,  969, 1469, 1600, 1601
 1602, 1604, 1605, 1606, 1607, 1608, 1609, 2675, 2676, 2677, 2678, 3712, 3713, 3720, 3721, 3722
 3723, 3724, 3725, 3726, 3727, 3728, 4994, 4995, 4996, 4997
*Elset, elset=Set-84, generate
 2953,  2968,     1
*Nset, nset=Set-85
  153,  154,  275,  276,  298,  299,  314,  315,  977,  978, 1610, 1611, 1612, 1613, 1756, 1757
 1758, 1759, 1760, 1761, 1810, 1811, 1812, 1813, 1814, 1815, 1816, 1817, 3730, 3731, 4039, 4040
 4041, 4042, 4043, 4182, 4183, 4184, 4185, 4186, 4187, 4188, 4189, 4190, 4191, 4192, 5241, 5242
 5243, 5244, 5245
*Elset, elset=Set-85, generate
 3817,  3836,     1
*Nset, nset=Set-86
  154,  158,  275,  278,  298,  302,  314,  316,  992,  993, 1611, 1618, 1622, 1623, 1756, 1757
 1758, 1770, 1771, 1772, 1810, 1812, 1813, 1814, 1818, 1819, 1820, 1821, 3741, 3742, 4055, 4056
 4057, 4058, 4059, 4190, 4191, 4192, 4193, 4194, 4195, 4196, 4197, 4198, 4199, 4200, 5246, 5247
 5248, 5249, 5250
*Elset, elset=Set-86, generate
 3837,  3856,     1
*Nset, nset=_PickedSet164, internal
  189,  190,  195,  196,  197,  198,  306,  307,  310,  311,  312,  313, 1180, 1217, 1218, 1221
 1222, 1223, 1224, 1225, 1226, 1227, 1228, 1229, 1230, 1231, 1234, 1235, 1236, 1237, 1238, 1239
 1240, 1241, 1244, 1783, 1784, 1787, 1788, 1789, 1796, 1797, 1798, 1799, 1800, 1801, 1802, 1803
 1804, 1805, 1806, 1807, 1808, 1809, 3115, 3116, 3151, 3152, 3153, 3154, 3155, 3156, 3157, 3158
 4120, 4121, 4122, 4123, 4124, 4125, 4126, 4127, 4128, 4129, 4130, 4131, 4132, 4133, 4134, 4135
 4136, 4137, 4138, 4139, 4140, 4141, 4142, 4143, 4144, 4145, 4146, 4147, 4148, 4149, 4150, 4151
 4152, 4153, 4154, 4155, 4156, 4157, 4158, 4159, 4160, 4161, 4162, 4163, 4164, 4165, 4166, 4167
 4168, 4169, 4170, 4171, 4172, 4173, 4174, 4175, 4176, 4177, 4178, 4179, 4180, 4181, 5214, 5215
 5216, 5217, 5218, 5219, 5220, 5221, 5222, 5223, 5224, 5225, 5226, 5227, 5228, 5229, 5230, 5231
 5232, 5233, 5234, 5235, 5236, 5237, 5238, 5239, 5240
*Elset, elset=_PickedSet164, internal, generate
 3741,  3816,     1
*Nset, nset=_PickedSet165, internal
  185,  186,  187,  188,  189,  190,  304,  305,  306,  307,  308,  309, 1146, 1147, 1148, 1149
 1150, 1151, 1152, 1153, 1158, 1159, 1160, 1161, 1162, 1163, 1164, 1165, 1170, 1171, 1172, 1173
 1176, 1177, 1180, 1777, 1778, 1779, 1780, 1781, 1782, 1783, 1784, 1785, 1786, 1787, 1788, 1789
 1790, 1791, 1792, 1793, 1794, 1795, 3011, 3012, 3013, 3014, 3015, 3016, 3017, 3018, 3029, 3030
 4068, 4069, 4070, 4071, 4072, 4073, 4074, 4075, 4076, 4077, 4078, 4079, 4080, 4081, 4082, 4083
 4084, 4085, 4086, 4087, 4088, 4089, 4090, 4091, 4092, 4093, 4094, 4095, 4096, 4097, 4098, 4099
 4100, 4101, 4102, 4103, 4104, 4105, 4106, 4107, 4108, 4109, 4110, 4111, 4112, 4113, 4114, 4115
 4116, 4117, 4118, 4119, 4120, 4121, 5191, 5192, 5193, 5194, 5195, 5196, 5197, 5198, 5199, 5200
 5201, 5202, 5203, 5204, 5205, 5206, 5207, 5208, 5209, 5210, 5211, 5212, 5213
*Elset, elset=_PickedSet165, internal, generate
 3673,  3740,     1
*Nset, nset=_PickedSet166, internal
  122,  123,  183,  184,  185,  186,  187,  188,  828, 1123, 1124, 1125, 1126, 1127, 1128, 1129
 1130, 1134, 1135, 1136, 1137, 1138, 1139, 1140, 1141, 1145, 1146, 1147, 1148, 1149, 1150, 1151
 1152, 1153, 1154, 1155, 1156, 1157, 1158, 1159, 1160, 1161, 1162, 1163, 1164, 1165, 1166, 1167
 1168, 1169, 1170, 1171, 2967, 2968, 2969, 2970, 2971, 2972, 2973, 2974, 2975, 2976, 2977, 2978
 2979, 2980, 2981, 2982, 2983, 2984, 2985, 2986, 2987, 2988, 2989, 2990, 2991, 2992, 2993, 2994
 2995, 2996, 2997, 2998, 2999, 3000, 3001, 3002, 3003, 3004, 3005, 3006, 3007, 3008, 3009, 3010
 3011, 3012, 3013, 3014, 3015, 3016, 3017, 3018, 4649, 4650, 4651, 4652, 4653, 4654, 4655, 4656
 4657, 4658, 4659, 4660, 4661, 4662, 4663, 4664
*Elset, elset=_PickedSet166, internal, generate
 1559,  1612,     1
*Nset, nset=_PickedSet167, internal
   74,   75,  119,  120,  122,  123,  181,  182,  183,  184,  616,  804,  805,  809,  810,  811
  815,  816,  817,  823,  824,  825,  828, 1106, 1107, 1108, 1109, 1110, 1114, 1115, 1116, 1117
 1118, 1122, 1123, 1124, 1125, 1126, 1127, 1128, 1129, 1130, 1131, 1132, 1133, 1134, 1135, 1136
 1137, 1138, 1139, 1140, 1141, 1142, 1143, 1144, 1145, 2427, 2428, 2449, 2450, 2451, 2911, 2912
 2913, 2914, 2915, 2916, 2917, 2918, 2919, 2920, 2921, 2922, 2923, 2924, 2925, 2926, 2927, 2928
 2929, 2930, 2931, 2932, 2933, 2934, 2935, 2936, 2937, 2938, 2939, 2940, 2941, 2942, 2943, 2944
 2945, 2946, 2947, 2948, 2949, 2950, 2951, 2952, 2953, 2954, 2955, 2956, 2957, 2958, 2959, 2960
 2961, 2962, 2963, 2964, 2965, 2966, 2967, 2968, 2969, 2970, 2971, 2972, 2973, 2974, 4625, 4626
 4627, 4628, 4629, 4630, 4631, 4632, 4633, 4634, 4635, 4636, 4637, 4638, 4639, 4640, 4641, 4642
 4643, 4644, 4645, 4646, 4647, 4648
*Elset, elset=_PickedSet167, internal, generate
 1487,  1558,     1
*Nset, nset=_PickedSet168, internal
   71,   72,  116,  118,  119,  120,  179,  180,  181,  182,  599,  791,  792,  797,  798,  799
  801,  802,  803,  806,  807,  808,  811, 1097, 1098, 1101, 1102, 1105, 1106, 1107, 1108, 1109
 1110, 1111, 1112, 1113, 1114, 1115, 1116, 1117, 1118, 1119, 1120, 1121, 1122, 2409, 2410, 2429
 2430, 2431, 2876, 2877, 2878, 2879, 2880, 2881, 2882, 2883, 2884, 2885, 2886, 2887, 2888, 2889
 2890, 2891, 2892, 2893, 2894, 2895, 2896, 2897, 2898, 2899, 2900, 2901, 2902, 2903, 2904, 2905
 2906, 2907, 2908, 2909, 2910, 2911, 2912, 2913, 2914, 2915, 4610, 4611, 4612, 4613, 4614, 4615
 4616, 4617, 4618, 4619, 4620, 4621, 4622, 4623, 4624
*Elset, elset=_PickedSet168, internal, generate
 1439,  1486,     1
*Nset, nset=_PickedSet169, internal
   36,   37,   71,   72,   74,   75,  119,  120,  451,  591,  592,  595,  596,  599,  603,  604
  605,  611,  612,  613,  616,  801,  802,  803,  804,  805,  806,  807,  808,  809,  810,  811
 2160, 2161, 2179, 2180, 2181, 2415, 2416, 2417, 2418, 2419, 2420, 2421, 2422, 2423, 2424, 2425
 2426, 2427, 2428, 2429, 2430, 2431, 4447, 4448, 4449, 4450, 4451, 4452
*Elset, elset=_PickedSet169, internal, generate
 799,  822,    1
*Nset, nset=_PickedSet170, internal
  121,  122,  123,  124,  186,  187,  189,  190,  818,  819,  826,  827,  828,  829, 1154, 1155
 1166, 1167, 1171, 1172, 1173, 1174, 1175, 1176, 1177, 1178, 1179, 1180, 2444, 2445, 3009, 3010
 3019, 3020, 3021, 3022, 3023, 3024, 3025, 3026, 3027, 3028, 3029, 3030, 4665, 4666, 4667, 4668
*Elset, elset=_PickedSet170, internal, generate
 1613,  1630,     1
*Nset, nset=_PickedSet171, internal
   73,   74,   75,   76,  121,  122,  123,  124,  606,  607,  614,  615,  616,  617,  812,  813
  814,  815,  816,  817,  818,  819,  820,  821,  822,  823,  824,  825,  826,  827,  828,  829
 2174, 2175, 2432, 2433, 2434, 2435, 2436, 2437, 2438, 2439, 2440, 2441, 2442, 2443, 2444, 2445
 2446, 2447, 2448, 2449, 2450, 2451, 4453, 4454, 4455, 4456, 4457, 4458
*Elset, elset=_PickedSet171, internal, generate
 823,  846,    1
*Nset, nset=_PickedSet172, internal
  121,  124,  189,  190,  191,  192,  195,  196,  829, 1174, 1175, 1178, 1179, 1180, 1184, 1185
 1189, 1190, 1191, 1215, 1216, 1217, 1218, 1219, 1220, 1221, 1222, 1223, 3027, 3028, 3043, 3044
 3107, 3108, 3109, 3110, 3111, 3112, 3113, 3114, 3115, 3116, 3117, 3118, 4699, 4700, 4701, 4702
*Elset, elset=_PickedSet172, internal, generate
 1727,  1744,     1
*Nset, nset=_PickedSet173, internal
   73,   76,  121,  124,  125,  126,  191,  192,  617,  812,  813,  814,  820,  821,  822,  829
  833,  834,  838,  839,  840, 1181, 1182, 1183, 1184, 1185, 1186, 1187, 1188, 1189, 1190, 1191
 2446, 2447, 2448, 2464, 2465, 3031, 3032, 3033, 3034, 3035, 3036, 3037, 3038, 3039, 3040, 3041
 3042, 3043, 3044, 3045, 3046, 3047, 4669, 4670, 4671, 4672, 4673, 4674
*Elset, elset=_PickedSet173, internal, generate
 1631,  1654,     1
*Nset, nset=_PickedSet174, internal
  191,  192,  193,  194,  195,  196,  197,  198, 1191, 1195, 1196, 1197, 1198, 1199, 1200, 1201
 1202, 1206, 1207, 1208, 1209, 1210, 1211, 1212, 1213, 1214, 1215, 1216, 1219, 1220, 1223, 1224
 1225, 1226, 1227, 1228, 1229, 1230, 1231, 1232, 1233, 1234, 1235, 1236, 1237, 1238, 1239, 1240
 1241, 1242, 1243, 1244, 3096, 3097, 3098, 3099, 3100, 3101, 3102, 3103, 3117, 3118, 3119, 3120
 3121, 3122, 3123, 3124, 3125, 3126, 3127, 3128, 3129, 3130, 3131, 3132, 3133, 3134, 3135, 3136
 3137, 3138, 3139, 3140, 3141, 3142, 3143, 3144, 3145, 3146, 3147, 3148, 3149, 3150, 3151, 3152
 3153, 3154, 3155, 3156, 3157, 3158, 3159, 3160, 4703, 4704, 4705, 4706, 4707, 4708, 4709, 4710
 4711, 4712, 4713, 4714, 4715, 4716, 4717, 4718
*Elset, elset=_PickedSet174, internal, generate
 1745,  1798,     1
*Nset, nset=_PickedSet175, internal
  125,  126,  127,  128,  130,  131,  191,  192,  193,  194,  840,  844,  845,  849,  850,  851
  854,  855,  856,  857,  858,  864,  865,  866,  867,  868,  872, 1181, 1182, 1183, 1186, 1187
 1188, 1191, 1192, 1193, 1194, 1195, 1196, 1197, 1198, 1199, 1200, 1201, 1202, 1203, 1204, 1205
 1206, 1207, 1208, 1209, 1210, 1211, 1212, 1213, 1214, 2481, 2482, 2521, 2522, 2523, 2524, 2525
 3045, 3046, 3047, 3048, 3049, 3050, 3051, 3052, 3053, 3054, 3055, 3056, 3057, 3058, 3059, 3060
 3061, 3062, 3063, 3064, 3065, 3066, 3067, 3068, 3069, 3070, 3071, 3072, 3073, 3074, 3075, 3076
 3077, 3078, 3079, 3080, 3081, 3082, 3083, 3084, 3085, 3086, 3087, 3088, 3089, 3090, 3091, 3092
 3093, 3094, 3095, 3096, 3097, 3098, 3099, 3100, 3101, 3102, 3103, 3104, 3105, 3106, 4675, 4676
 4677, 4678, 4679, 4680, 4681, 4682, 4683, 4684, 4685, 4686, 4687, 4688, 4689, 4690, 4691, 4692
 4693, 4694, 4695, 4696, 4697, 4698
*Elset, elset=_PickedSet175, internal, generate
 1655,  1726,     1
*Nset, nset=_PickedSet176, internal
   79,   80,   82,   83,  127,  128,  129,  130,  131,  132,  635,  638,  639,  644,  645,  648
  841,  842,  843,  846,  847,  848,  851,  852,  853,  854,  855,  856,  857,  858,  859,  860
  861,  862,  863,  864,  865,  866,  867,  868,  869,  870,  871,  872,  873, 2218, 2219, 2483
 2484, 2485, 2486, 2487, 2488, 2489, 2490, 2491, 2492, 2493, 2494, 2495, 2496, 2497, 2498, 2499
 2500, 2501, 2502, 2503, 2504, 2505, 2506, 2507, 2508, 2509, 2510, 2511, 2512, 2513, 2514, 2515
 2516, 2517, 2518, 2519, 2520, 2521, 2522, 2523, 2524, 2525, 4471, 4472, 4473, 4474, 4475, 4476
 4477, 4478, 4479, 4480, 4481, 4482, 4483, 4484, 4485
*Elset, elset=_PickedSet176, internal, generate
 895,  942,    1
*Nset, nset=_PickedSet177, internal
   77,   78,   79,   80,  125,  126,  127,  128,  626,  629,  630,  633,  634,  635,  830,  831
  832,  835,  836,  837,  840,  841,  842,  843,  844,  845,  846,  847,  848,  849,  850,  851
 2202, 2203, 2466, 2467, 2468, 2469, 2470, 2471, 2472, 2473, 2474, 2475, 2476, 2477, 2478, 2479
 2480, 2481, 2482, 2483, 2484, 2485, 4465, 4466, 4467, 4468, 4469, 4470
*Elset, elset=_PickedSet177, internal, generate
 871,  894,    1
*Nset, nset=_PickedSet178, internal
   35,   38,   73,   76,   77,   78,  125,  126,  452,  600,  601,  602,  608,  609,  610,  617
  620,  621,  624,  625,  626,  830,  831,  832,  833,  834,  835,  836,  837,  838,  839,  840
 2176, 2177, 2178, 2190, 2191, 2452, 2453, 2454, 2455, 2456, 2457, 2458, 2459, 2460, 2461, 2462
 2463, 2464, 2465, 2466, 2467, 2468, 4459, 4460, 4461, 4462, 4463, 4464
*Elset, elset=_PickedSet178, internal, generate
 847,  870,    1
*Nset, nset=_PickedSet179, internal
   35,   36,   37,   38,   73,   74,   75,   76,  443,  444,  449,  450,  451,  452,  600,  601
  602,  603,  604,  605,  606,  607,  608,  609,  610,  611,  612,  613,  614,  615,  616,  617
 1971, 1972, 2162, 2163, 2164, 2165, 2166, 2167, 2168, 2169, 2170, 2171, 2172, 2173, 2174, 2175
 2176, 2177, 2178, 2179, 2180, 2181, 4365, 4366, 4367, 4368, 4369, 4370
*Elset, elset=_PickedSet179, internal, generate
 445,  468,    1
*Nset, nset=_PickedSet180, internal
  115,  116,  117,  118,  177,  178,  179,  180,  789,  790,  795,  796,  799,  800, 1084, 1085
 1090, 1091, 1096, 1097, 1098, 1099, 1100, 1101, 1102, 1103, 1104, 1105, 2413, 2414, 2864, 2865
 2866, 2867, 2868, 2869, 2870, 2871, 2872, 2873, 2874, 2875, 2876, 2877, 4606, 4607, 4608, 4609
*Elset, elset=_PickedSet180, internal, generate
 1421,  1438,     1
*Nset, nset=_PickedSet181, internal
   69,   70,   71,   72,  115,  116,  117,  118,  590,  593,  594,  597,  598,  599,  787,  788
  789,  790,  791,  792,  793,  794,  795,  796,  797,  798,  799,  800, 2158, 2159, 2401, 2402
 2403, 2404, 2405, 2406, 2407, 2408, 2409, 2410, 2411, 2412, 2413, 2414, 4443, 4444, 4445, 4446
*Elset, elset=_PickedSet181, internal, generate
 781,  798,    1
*Nset, nset=_PickedSet182, internal
   31,   34,   36,   37,   69,   70,   71,   72,  437,  441,  442,  447,  448,  451,  582,  583
  586,  587,  590,  591,  592,  593,  594,  595,  596,  597,  598,  599, 1975, 1976, 2148, 2149
 2150, 2151, 2152, 2153, 2154, 2155, 2156, 2157, 2158, 2159, 2160, 2161, 4361, 4362, 4363, 4364
*Elset, elset=_PickedSet182, internal, generate
 427,  444,    1
*Nset, nset=_PickedSet183, internal
   31,   32,   33,   34,   35,   36,   37,   38,  425,  426,  431,  432,  437,  438,  439,  440
  441,  442,  443,  444,  445,  446,  447,  448,  449,  450,  451,  452, 1961, 1962, 1963, 1964
 1965, 1966, 1967, 1968, 1969, 1970, 1971, 1972, 1973, 1974, 1975, 1976, 4301, 4302, 4303, 4304
*Elset, elset=_PickedSet183, internal, generate
 163,  180,    1
*Nset, nset=_PickedSet184, internal
   32,   33,   35,   38,   39,   40,   77,   78,  438,  439,  440,  445,  446,  452,  455,  456
  459,  460,  461,  618,  619,  620,  621,  622,  623,  624,  625,  626, 1973, 1974, 1985, 1986
 2182, 2183, 2184, 2185, 2186, 2187, 2188, 2189, 2190, 2191, 2192, 2193, 4371, 4372, 4373, 4374
*Elset, elset=_PickedSet184, internal, generate
 469,  486,    1
*Nset, nset=_PickedSet185, internal
   39,   40,   42,   43,   77,   78,   79,   80,  461,  464,  465,  470,  471,  474,  618,  619
  622,  623,  626,  627,  628,  629,  630,  631,  632,  633,  634,  635, 2001, 2002, 2192, 2193
 2194, 2195, 2196, 2197, 2198, 2199, 2200, 2201, 2202, 2203, 2204, 2205, 4375, 4376, 4377, 4378
*Elset, elset=_PickedSet185, internal, generate
 487,  504,    1
*Nset, nset=_PickedSet186, internal
   42,   43,   79,   80,   81,   82,   83,   84,  474,  627,  628,  631,  632,  635,  636,  637
  638,  639,  640,  641,  642,  643,  644,  645,  646,  647,  648,  649, 2204, 2205, 2206, 2207
 2208, 2209, 2210, 2211, 2212, 2213, 2214, 2215, 2216, 2217, 2218, 2219, 4379, 4380, 4381, 4382
*Elset, elset=_PickedSet186, internal, generate
 505,  522,    1
*Nset, nset=_PickedSet187, internal
   81,   82,   83,   84,  129,  132,  133,  134,  640,  641,  646,  647,  648,  649,  852,  853
  862,  863,  873,  874,  875,  876,  877,  878,  879,  880,  881,  882, 2214, 2215, 2519, 2520
 2526, 2527, 2528, 2529, 2530, 2531, 2532, 2533, 2534, 2535, 2536, 2537, 4486, 4487, 4488, 4489
*Elset, elset=_PickedSet187, internal, generate
 943,  960,    1
*Nset, nset=_PickedSet188, internal
   81,   84,   85,   86,  133,  134,  135,  136,  649,  652,  653,  656,  657,  658,  874,  875
  878,  879,  882,  883,  884,  885,  886,  887,  888,  889,  890,  891, 2228, 2229, 2536, 2537
 2538, 2539, 2540, 2541, 2542, 2543, 2544, 2545, 2546, 2547, 2548, 2549, 4490, 4491, 4492, 4493
*Elset, elset=_PickedSet188, internal, generate
 961,  978,    1
*Nset, nset=_PickedSet189, internal
   41,   42,   43,   44,   81,   84,   85,   86,  466,  467,  472,  473,  474,  475,  636,  637
  642,  643,  649,  650,  651,  652,  653,  654,  655,  656,  657,  658, 1997, 1998, 2216, 2217
 2220, 2221, 2222, 2223, 2224, 2225, 2226, 2227, 2228, 2229, 2230, 2231, 4383, 4384, 4385, 4386
*Elset, elset=_PickedSet189, internal, generate
 523,  540,    1
*Nset, nset=_PickedSet190, internal
    2,    5,   39,   40,   41,   42,   43,   44,  341,  453,  454,  457,  458,  461,  462,  463
  464,  465,  466,  467,  468,  469,  470,  471,  472,  473,  474,  475, 1987, 1988, 1989, 1990
 1991, 1992, 1993, 1994, 1995, 1996, 1997, 1998, 1999, 2000, 2001, 2002, 4309, 4310, 4311, 4312
*Elset, elset=_PickedSet190, internal, generate
 199,  216,    1
*Nset, nset=_PickedSet191, internal
    1,    2,    5,    8,   32,   33,   39,   40,  322,  323,  330,  331,  339,  341,  427,  428
  433,  434,  438,  453,  454,  455,  456,  457,  458,  459,  460,  461, 1853, 1854, 1959, 1960
 1977, 1978, 1979, 1980, 1981, 1982, 1983, 1984, 1985, 1986, 1987, 1988, 4305, 4306, 4307, 4308
*Elset, elset=_PickedSet191, internal, generate
 181,  198,    1
*Nset, nset=_PickedSet192, internal
    1,    8,   29,   30,   31,   32,   33,   34,  339,  416,  417,  420,  421,  424,  425,  426
  427,  428,  429,  430,  431,  432,  433,  434,  435,  436,  437,  438, 1947, 1948, 1949, 1950
 1951, 1952, 1953, 1954, 1955, 1956, 1957, 1958, 1959, 1960, 1961, 1962, 4297, 4298, 4299, 4300
*Elset, elset=_PickedSet192, internal, generate
 145,  162,    1
*Nset, nset=_PickedSet193, internal
   29,   30,   31,   34,   67,   68,   69,   70,  424,  429,  430,  435,  436,  437,  573,  574
  577,  578,  581,  582,  583,  584,  585,  586,  587,  588,  589,  590, 1957, 1958, 2136, 2137
 2138, 2139, 2140, 2141, 2142, 2143, 2144, 2145, 2146, 2147, 2148, 2149, 4357, 4358, 4359, 4360
*Elset, elset=_PickedSet193, internal, generate
 409,  426,    1
*Nset, nset=_PickedSet194, internal
   67,   68,   69,   70,  113,  114,  115,  117,  581,  584,  585,  588,  589,  590,  778,  779
  782,  783,  786,  787,  788,  793,  794,  800, 1086, 1087, 1092, 1093, 2146, 2147, 2399, 2400
 2411, 2412, 2862, 2863, 4027, 4028, 4029, 4030, 4031, 4032, 4033, 4034, 5173, 5174, 5175, 5176
*Elset, elset=_PickedSet194, internal, generate
 3597,  3614,     1
*Nset, nset=_PickedSet195, internal
  113,  114,  115,  117,  175,  176,  177,  178,  786,  800, 1075, 1076, 1079, 1080, 1083, 1084
 1085, 1086, 1087, 1088, 1089, 1090, 1091, 1092, 1093, 1094, 1095, 1096, 2850, 2851, 2852, 2853
 2854, 2855, 2856, 2857, 2858, 2859, 2860, 2861, 2862, 2863, 2864, 2865, 4602, 4603, 4604, 4605
*Elset, elset=_PickedSet195, internal, generate
 1403,  1420,     1
*Nset, nset=_PickedSet196, internal
  153,  154,  155,  156,  298,  299,  300,  301,  977,  978,  979,  982,  983,  984, 1756, 1757
 1758, 1759, 1760, 1761, 1762, 1763, 1764, 1765, 1766, 1767, 1768, 1769, 2692, 2693, 4039, 4040
 4041, 4042, 4043, 4044, 4045, 4046, 4047, 4048, 4049, 4050, 4051, 4052, 4053, 4054, 5181, 5182
 5183, 5184, 5185
*Elset, elset=_PickedSet196, internal, generate
 3633,  3652,     1
*Nset, nset=_PickedSet197, internal
  154,  156,  158,  160,  298,  300,  302,  303,  982,  992,  993,  994,  998,  999, 1756, 1757
 1758, 1763, 1764, 1765, 1766, 1770, 1771, 1772, 1773, 1774, 1775, 1776, 2708, 2709, 4052, 4053
 4054, 4055, 4056, 4057, 4058, 4059, 4060, 4061, 4062, 4063, 4064, 4065, 4066, 4067, 5186, 5187
 5188, 5189, 5190
*Elset, elset=_PickedSet197, internal, generate
 3653,  3672,     1
*Nset, nset=_PickedSet198, internal
   97,   98,   99,  100,  151,  152,  153,  154,  155,  156,  712,  713,  720,  721,  722,  723
  968,  969,  970,  971,  972,  976,  977,  978,  979,  980,  981,  982,  983,  984,  985,  986
  987, 2309, 2310, 2679, 2680, 2688, 2689, 2690, 2691, 2692, 2693, 2694, 2695, 2696, 2697, 2698
 2699, 2700, 4544, 4545, 4546, 4547
*Elset, elset=_PickedSet198, internal, generate
 1171,  1190,     1
*Nset, nset=_PickedSet199, internal
   97,  100,  101,  102,  154,  156,  157,  158,  159,  160,  723,  724,  725,  729,  730,  734
  980,  981,  982,  986,  987,  988,  989,  990,  991,  992,  993,  994,  995,  996,  997,  998
  999, 2332, 2333, 2695, 2696, 2701, 2702, 2703, 2704, 2705, 2706, 2707, 2708, 2709, 2710, 2711
 2712, 2713, 4548, 4549, 4550, 4551
*Elset, elset=_PickedSet199, internal, generate
 1191,  1210,     1
*Nset, nset=_PickedSet200, internal
   98,   99,  149,  150,  151,  152,  722,  959,  960,  961,  962,  963,  965,  966,  967,  968
  969,  970,  971,  972,  973,  974,  975, 2666, 2667, 2675, 2676, 2677, 2678, 2679, 2680, 2681
 2682, 2683, 2684, 2685, 2686, 2687, 4540, 4541, 4542, 4543
*Elset, elset=_PickedSet200, internal, generate
 1155,  1170,     1
*Nset, nset=_PickedSet201, internal
  101,  102,  157,  159,  161,  162,  734,  989,  990,  991,  995,  996, 1000, 1001, 1002, 1003
 1004, 1005, 1006, 1007, 1008, 1009, 1010, 2705, 2706, 2714, 2715, 2716, 2717, 2718, 2719, 2720
 2721, 2722, 2723, 2724, 2725, 2726, 4552, 4553, 4554, 4555
*Elset, elset=_PickedSet201, internal, generate
 1211,  1226,     1
*Nset, nset=_PickedSet202, internal
   95,   96,  145,  146,  147,  148,  705,  928,  929,  930,  931,  932,  936,  937,  938,  939
  940,  944,  945,  946,  947,  948,  949,  950,  951,  952,  953,  954,  955,  956,  957, 2631
 2632, 2633, 2634, 2635, 2636, 2637, 2638, 2639, 2640, 2641, 2642, 2643, 2644, 2645, 2646, 2647
 2648, 2649, 2650, 2651, 2652, 2653, 2654, 2655, 2656, 2657, 2658, 2659, 4525, 4526, 4527, 4528
 4529, 4530, 4531, 4532, 4533
*Elset, elset=_PickedSet202, internal, generate
 1099,  1128,     1
*Nset, nset=_PickedSet203, internal
   53,   56,   95,   96,   98,   99,  147,  148,  149,  150,  528,  698,  699,  703,  704,  705
  709,  710,  711,  717,  718,  719,  722,  948,  949,  950,  951,  952,  953,  954,  958,  959
  960,  961,  962,  963,  964, 2292, 2293, 2314, 2315, 2316, 2645, 2646, 2647, 2660, 2661, 2662
 2663, 2664, 2665, 2666, 2667, 2668, 2669, 2670, 2671, 2672, 2673, 2674, 4534, 4535, 4536, 4537
 4538, 4539
*Elset, elset=_PickedSet203, internal, generate
 1129,  1154,     1
*Nset, nset=_PickedSet204, internal
   53,   54,   55,   56,   97,   98,   99,  100,  512,  513,  520,  521,  528,  529,  706,  707
  708,  709,  710,  711,  712,  713,  714,  715,  716,  717,  718,  719,  720,  721,  722,  723
 2069, 2070, 2297, 2298, 2299, 2300, 2301, 2302, 2303, 2304, 2305, 2306, 2307, 2308, 2309, 2310
 2311, 2312, 2313, 2314, 2315, 2316, 4409, 4410, 4411, 4412, 4413, 4414
*Elset, elset=_PickedSet204, internal, generate
 637,  660,    1
*Nset, nset=_PickedSet205, internal
   54,   55,   57,   58,   97,  100,  101,  102,  529,  533,  534,  538,  539,  540,  706,  707
  708,  714,  715,  716,  723,  724,  725,  726,  727,  728,  729,  730,  731,  732,  733,  734
 2083, 2084, 2311, 2312, 2313, 2317, 2318, 2319, 2320, 2321, 2322, 2323, 2324, 2325, 2326, 2327
 2328, 2329, 2330, 2331, 2332, 2333, 4415, 4416, 4417, 4418, 4419, 4420
*Elset, elset=_PickedSet205, internal, generate
 661,  684,    1
*Nset, nset=_PickedSet206, internal
   57,   58,  101,  102,  103,  104,  161,  162,  163,  164,  540,  726,  727,  728,  731,  732
  733,  734,  735,  736,  740,  741,  745, 1003, 1004, 1005, 1006, 1007, 1011, 1012, 1013, 1014
 1015, 1016, 1017, 1018, 1019, 2329, 2330, 2331, 2349, 2350, 2718, 2719, 2727, 2728, 2729, 2730
 2731, 2732, 2733, 2734, 2735, 2736, 2737, 2738, 2739, 2740, 2741, 2742, 4556, 4557, 4558, 4559
 4560, 4561
*Elset, elset=_PickedSet206, internal, generate
 1227,  1252,     1
*Nset, nset=_PickedSet207, internal
  103,  104,  163,  164,  165,  166,  745, 1012, 1013, 1014, 1015, 1016, 1017, 1018, 1020, 1021
 1022, 1023, 1024, 1025, 1026, 1027, 1028, 1029, 1030, 1031, 1032, 1033, 1034, 1035, 1036, 2733
 2734, 2735, 2743, 2744, 2745, 2746, 2747, 2748, 2749, 2750, 2751, 2752, 2753, 2754, 2755, 2756
 2757, 2758, 2759, 2760, 2761, 2762, 2763, 2764, 2765, 2766, 2767, 2768, 4562, 4563, 4564, 4565
 4566, 4567, 4568, 4569, 4570
*Elset, elset=_PickedSet207, internal, generate
 1253,  1282,     1
*Nset, nset=_PickedSet208, internal
   51,   52,   93,   94,   95,   96,  143,  144,  145,  146,  511,  688,  689,  692,  693,  694
  695,  696,  697,  700,  701,  702,  705,  919,  920,  923,  924,  927,  928,  929,  930,  931
  932,  933,  934,  935,  936,  937,  938,  939,  940,  941,  942,  943,  944, 2276, 2277, 2294
 2295, 2296, 2596, 2597, 2598, 2599, 2600, 2601, 2602, 2603, 2604, 2605, 2606, 2607, 2608, 2609
 2610, 2611, 2612, 2613, 2614, 2615, 2616, 2617, 2618, 2619, 2620, 2621, 2622, 2623, 2624, 2625
 2626, 2627, 2628, 2629, 2630, 2631, 2632, 2633, 2634, 2635, 4510, 4511, 4512, 4513, 4514, 4515
 4516, 4517, 4518, 4519, 4520, 4521, 4522, 4523, 4524
*Elset, elset=_PickedSet208, internal, generate
 1051,  1098,     1
*Nset, nset=_PickedSet209, internal
   18,   19,   51,   52,   53,   56,   95,   96,  382,  503,  504,  507,  508,  511,  517,  518
  519,  525,  526,  527,  528,  695,  696,  697,  698,  699,  700,  701,  702,  703,  704,  705
 2049, 2050, 2063, 2064, 2065, 2280, 2281, 2282, 2283, 2284, 2285, 2286, 2287, 2288, 2289, 2290
 2291, 2292, 2293, 2294, 2295, 2296, 4403, 4404, 4405, 4406, 4407, 4408
*Elset, elset=_PickedSet209, internal, generate
 613,  636,    1
*Nset, nset=_PickedSet210, internal
   17,   18,   19,   20,   53,   54,   55,   56,  374,  375,  380,  381,  382,  383,  512,  513
  514,  515,  516,  517,  518,  519,  520,  521,  522,  523,  524,  525,  526,  527,  528,  529
 1893, 1894, 2051, 2052, 2053, 2054, 2055, 2056, 2057, 2058, 2059, 2060, 2061, 2062, 2063, 2064
 2065, 2066, 2067, 2068, 2069, 2070, 4329, 4330, 4331, 4332, 4333, 4334
*Elset, elset=_PickedSet210, internal, generate
 289,  312,    1
*Nset, nset=_PickedSet211, internal
   17,   20,   21,   24,   54,   55,   57,   58,  383,  388,  389,  394,  395,  396,  514,  515
  516,  522,  523,  524,  529,  530,  531,  532,  533,  534,  535,  536,  537,  538,  539,  540
 1907, 1908, 2066, 2067, 2068, 2071, 2072, 2073, 2074, 2075, 2076, 2077, 2078, 2079, 2080, 2081
 2082, 2083, 2084, 2085, 2086, 2087, 4335, 4336, 4337, 4338, 4339, 4340
*Elset, elset=_PickedSet211, internal, generate
 313,  336,    1
*Nset, nset=_PickedSet212, internal
   21,   24,   57,   58,   59,   62,  103,  104,  396,  530,  531,  532,  535,  536,  537,  540
  545,  546,  551,  552,  553,  735,  736,  737,  738,  739,  740,  741,  742,  743,  744,  745
 2085, 2086, 2087, 2096, 2097, 2334, 2335, 2336, 2337, 2338, 2339, 2340, 2341, 2342, 2343, 2344
 2345, 2346, 2347, 2348, 2349, 2350, 4421, 4422, 4423, 4424, 4425, 4426
*Elset, elset=_PickedSet212, internal, generate
 685,  708,    1
*Nset, nset=_PickedSet213, internal
   59,   60,   61,   62,  105,  106,  107,  108,  541,  542,  547,  548,  553,  554,  746,  747
  748,  749,  750,  751,  752,  753,  754,  755,  756,  757,  758,  759, 2100, 2101, 2351, 2352
 2353, 2354, 2355, 2356, 2357, 2358, 2359, 2360, 2361, 2362, 2363, 2364, 4427, 4428, 4429, 4430
*Elset, elset=_PickedSet213, internal, generate
 709,  726,    1
*Nset, nset=_PickedSet214, internal
   59,   62,  103,  104,  106,  107,  165,  166,  167,  168,  553,  737,  738,  739,  742,  743
  744,  745,  748,  749,  754,  755,  758, 1023, 1024, 1025, 1026, 1027, 1028, 1029, 1030, 1031
 1032, 1033, 1037, 1038, 1039, 1040, 1041, 1042, 1043, 1044, 1045, 1046, 1047, 2346, 2347, 2348
 2363, 2364, 2752, 2753, 2754, 2755, 2756, 2769, 2770, 2771, 2772, 2773, 2774, 2775, 2776, 2777
 2778, 2779, 2780, 2781, 2782, 2783, 2784, 2785, 2786, 2787, 2788, 2789, 2790, 2791, 2792, 2793
 2794, 2795, 2796, 2797, 2798, 2799, 2800, 2801, 2802, 2803, 4571, 4572, 4573, 4574, 4575, 4576
 4577, 4578, 4579, 4580, 4581, 4582, 4583, 4584, 4585
*Elset, elset=_PickedSet214, internal, generate
 1283,  1330,     1
*Nset, nset=_PickedSet215, internal
   91,   92,   93,   94,  141,  142,  143,  144,  685,  686,  687,  690,  691,  694,  910,  911
  914,  915,  918,  919,  920,  921,  922,  923,  924,  925,  926,  927, 2278, 2279, 2584, 2585
 2586, 2587, 2588, 2589, 2590, 2591, 2592, 2593, 2594, 2595, 2596, 2597, 4506, 4507, 4508, 4509
*Elset, elset=_PickedSet215, internal, generate
 1033,  1050,     1
*Nset, nset=_PickedSet216, internal
   49,   50,   51,   52,   91,   92,   93,   94,  502,  505,  506,  509,  510,  511,  677,  678
  681,  682,  685,  686,  687,  688,  689,  690,  691,  692,  693,  694, 2047, 2048, 2266, 2267
 2268, 2269, 2270, 2271, 2272, 2273, 2274, 2275, 2276, 2277, 2278, 2279, 4399, 4400, 4401, 4402
*Elset, elset=_PickedSet216, internal, generate
 595,  612,    1
*Nset, nset=_PickedSet217, internal
   10,   11,   13,   16,   47,   48,   49,   50,  354,  360,  361,  366,  367,  368,  485,  486
  489,  490,  493,  494,  495,  496,  497,  498,  499,  500,  501,  502, 1879, 1880, 2025, 2026
 2027, 2028, 2029, 2030, 2031, 2032, 2033, 2034, 2035, 2036, 2037, 2038, 4321, 4322, 4323, 4324
*Elset, elset=_PickedSet217, internal, generate
 253,  270,    1
*Nset, nset=_PickedSet218, internal
   13,   16,   18,   19,   49,   50,   51,   52,  368,  372,  373,  378,  379,  382,  494,  495
  498,  499,  502,  503,  504,  505,  506,  507,  508,  509,  510,  511, 1897, 1898, 2037, 2038
 2039, 2040, 2041, 2042, 2043, 2044, 2045, 2046, 2047, 2048, 2049, 2050, 4325, 4326, 4327, 4328
*Elset, elset=_PickedSet218, internal, generate
 271,  288,    1
*Nset, nset=_PickedSet219, internal
    9,   10,   11,   12,   13,   14,   15,   16,  346,  347,  352,  353,  354,  355,  356,  357
  358,  359,  360,  361,  362,  363,  364,  365,  366,  367,  368,  369, 1865, 1866, 1871, 1872
 1873, 1874, 1875, 1876, 1877, 1878, 1879, 1880, 1881, 1882, 1883, 1884, 4273, 4274, 4275, 4276
*Elset, elset=_PickedSet219, internal, generate
 37,  54,   1
*Nset, nset=_PickedSet220, internal
   13,   14,   15,   16,   17,   18,   19,   20,  356,  357,  362,  363,  368,  369,  370,  371
  372,  373,  374,  375,  376,  377,  378,  379,  380,  381,  382,  383, 1883, 1884, 1885, 1886
 1887, 1888, 1889, 1890, 1891, 1892, 1893, 1894, 1895, 1896, 1897, 1898, 4277, 4278, 4279, 4280
*Elset, elset=_PickedSet220, internal, generate
 55,  72,   1
*Nset, nset=_PickedSet221, internal
   14,   15,   17,   20,   21,   22,   23,   24,  369,  370,  371,  376,  377,  383,  384,  385
  386,  387,  388,  389,  390,  391,  392,  393,  394,  395,  396,  397, 1895, 1896, 1899, 1900
 1901, 1902, 1903, 1904, 1905, 1906, 1907, 1908, 1909, 1910, 1911, 1912, 4281, 4282, 4283, 4284
*Elset, elset=_PickedSet221, internal, generate
 73,  90,   1
*Nset, nset=_PickedSet222, internal
   21,   22,   23,   24,   59,   60,   61,   62,  384,  385,  390,  391,  396,  397,  541,  542
  543,  544,  545,  546,  547,  548,  549,  550,  551,  552,  553,  554, 1911, 1912, 2088, 2089
 2090, 2091, 2092, 2093, 2094, 2095, 2096, 2097, 2098, 2099, 2100, 2101, 4341, 4342, 4343, 4344
*Elset, elset=_PickedSet222, internal, generate
 337,  354,    1
*Nset, nset=_PickedSet223, internal
  105,  106,  107,  108,  167,  168,  169,  170,  750,  751,  756,  757,  758,  759, 1037, 1038
 1042, 1043, 1047, 1048, 1049, 1050, 1051, 1052, 1053, 1054, 1055, 1056, 2359, 2360, 2802, 2803
 2804, 2805, 2806, 2807, 2808, 2809, 2810, 2811, 2812, 2813, 2814, 2815, 4586, 4587, 4588, 4589
*Elset, elset=_PickedSet223, internal, generate
 1331,  1348,     1
*Nset, nset=_PickedSet224, internal
   89,   90,   91,   92,  139,  140,  141,  142,  676,  679,  680,  683,  684,  685,  901,  902
  905,  906,  909,  910,  911,  912,  913,  914,  915,  916,  917,  918, 2264, 2265, 2572, 2573
 2574, 2575, 2576, 2577, 2578, 2579, 2580, 2581, 2582, 2583, 2584, 2585, 4502, 4503, 4504, 4505
*Elset, elset=_PickedSet224, internal, generate
 1015,  1032,     1
*Nset, nset=_PickedSet225, internal
   47,   48,   49,   50,   89,   90,   91,   92,  493,  496,  497,  500,  501,  502,  668,  669
  672,  673,  676,  677,  678,  679,  680,  681,  682,  683,  684,  685, 2035, 2036, 2254, 2255
 2256, 2257, 2258, 2259, 2260, 2261, 2262, 2263, 2264, 2265, 2266, 2267, 4395, 4396, 4397, 4398
*Elset, elset=_PickedSet225, internal, generate
 577,  594,    1
*Nset, nset=_PickedSet226, internal
   87,   88,   89,   90,  137,  138,  139,  140,  667,  670,  671,  674,  675,  676,  892,  893
  896,  897,  900,  901,  902,  903,  904,  905,  906,  907,  908,  909, 2252, 2253, 2560, 2561
 2562, 2563, 2564, 2565, 2566, 2567, 2568, 2569, 2570, 2571, 2572, 2573, 4498, 4499, 4500, 4501
*Elset, elset=_PickedSet226, internal, generate
  997,  1014,     1
*Nset, nset=_PickedSet227, internal
   85,   86,   87,   88,  135,  136,  137,  138,  658,  661,  662,  665,  666,  667,  883,  884
  887,  888,  891,  892,  893,  894,  895,  896,  897,  898,  899,  900, 2240, 2241, 2548, 2549
 2550, 2551, 2552, 2553, 2554, 2555, 2556, 2557, 2558, 2559, 2560, 2561, 4494, 4495, 4496, 4497
*Elset, elset=_PickedSet227, internal, generate
 979,  996,    1
*Nset, nset=_PickedSet228, internal
   41,   44,   45,   46,   85,   86,   87,   88,  475,  478,  479,  482,  483,  484,  650,  651
  654,  655,  658,  659,  660,  661,  662,  663,  664,  665,  666,  667, 2011, 2012, 2230, 2231
 2232, 2233, 2234, 2235, 2236, 2237, 2238, 2239, 2240, 2241, 2242, 2243, 4387, 4388, 4389, 4390
*Elset, elset=_PickedSet228, internal, generate
 541,  558,    1
*Nset, nset=_PickedSet229, internal
   45,   46,   47,   48,   87,   88,   89,   90,  484,  487,  488,  491,  492,  493,  659,  660
  663,  664,  667,  668,  669,  670,  671,  672,  673,  674,  675,  676, 2023, 2024, 2242, 2243
 2244, 2245, 2246, 2247, 2248, 2249, 2250, 2251, 2252, 2253, 2254, 2255, 4391, 4392, 4393, 4394
*Elset, elset=_PickedSet229, internal, generate
 559,  576,    1
*Nset, nset=_PickedSet230, internal
    3,    6,   10,   11,   45,   46,   47,   48,  340,  344,  345,  350,  351,  354,  476,  477
  480,  481,  484,  485,  486,  487,  488,  489,  490,  491,  492,  493, 1869, 1870, 2013, 2014
 2015, 2016, 2017, 2018, 2019, 2020, 2021, 2022, 2023, 2024, 2025, 2026, 4317, 4318, 4319, 4320
*Elset, elset=_PickedSet230, internal, generate
 235,  252,    1
*Nset, nset=_PickedSet231, internal
    2,    3,    5,    6,   41,   44,   45,   46,  324,  325,  332,  333,  340,  341,  462,  463
  468,  469,  475,  476,  477,  478,  479,  480,  481,  482,  483,  484, 1851, 1852, 1999, 2000
 2003, 2004, 2005, 2006, 2007, 2008, 2009, 2010, 2011, 2012, 2013, 2014, 4313, 4314, 4315, 4316
*Elset, elset=_PickedSet231, internal, generate
 217,  234,    1
*Nset, nset=_PickedSet232, internal
    1,    2,    3,    4,    5,    6,    7,    8,  322,  323,  324,  325,  326,  327,  328,  329
  330,  331,  332,  333,  334,  335,  336,  337,  338,  339,  340,  341, 1841, 1842, 1843, 1844
 1845, 1846, 1847, 1848, 1849, 1850, 1851, 1852, 1853, 1854, 1855, 1856, 4265, 4266, 4267, 4268
*Elset, elset=_PickedSet232, internal, generate
  1,  18,   1
*Nset, nset=_PickedSet233, internal
    4,    7,    9,   12,   25,   26,   27,   28,  338,  342,  343,  348,  349,  355,  400,  401
  404,  405,  406,  407,  408,  409,  410,  411,  412,  413,  414,  415, 1867, 1868, 1921, 1922
 1925, 1926, 1927, 1928, 1929, 1930, 1931, 1932, 1933, 1934, 1935, 1936, 4289, 4290, 4291, 4292
*Elset, elset=_PickedSet233, internal, generate
 109,  126,    1
*Nset, nset=_PickedSet234, internal
    3,    4,    6,    7,    9,   10,   11,   12,  326,  327,  334,  335,  338,  340,  342,  343
  344,  345,  346,  347,  348,  349,  350,  351,  352,  353,  354,  355, 1855, 1856, 1857, 1858
 1859, 1860, 1861, 1862, 1863, 1864, 1865, 1866, 1867, 1868, 1869, 1870, 4269, 4270, 4271, 4272
*Elset, elset=_PickedSet234, internal, generate
 19,  36,   1
*Nset, nset=_PickedSet235, internal
    1,    4,    7,    8,   27,   28,   29,   30,  328,  329,  336,  337,  338,  339,  407,  408
  411,  412,  415,  416,  417,  418,  419,  420,  421,  422,  423,  424, 1849, 1850, 1935, 1936
 1937, 1938, 1939, 1940, 1941, 1942, 1943, 1944, 1945, 1946, 1947, 1948, 4293, 4294, 4295, 4296
*Elset, elset=_PickedSet235, internal, generate
 127,  144,    1
*Nset, nset=_PickedSet236, internal
    9,   12,   14,   15,   22,   23,   25,   26,  355,  358,  359,  364,  365,  369,  386,  387
  392,  393,  397,  398,  399,  400,  401,  402,  403,  404,  405,  406, 1881, 1882, 1909, 1910
 1913, 1914, 1915, 1916, 1917, 1918, 1919, 1920, 1921, 1922, 1923, 1924, 4285, 4286, 4287, 4288
*Elset, elset=_PickedSet236, internal, generate
  91,  108,    1
*Nset, nset=_PickedSet237, internal
   22,   23,   25,   26,   60,   61,   63,   64,  397,  398,  399,  402,  403,  406,  543,  544
  549,  550,  554,  555,  556,  557,  558,  559,  560,  561,  562,  563, 1923, 1924, 2098, 2099
 2102, 2103, 2104, 2105, 2106, 2107, 2108, 2109, 2110, 2111, 2112, 2113, 4345, 4346, 4347, 4348
*Elset, elset=_PickedSet237, internal, generate
 355,  372,    1
*Nset, nset=_PickedSet238, internal
   65,   66,   67,   68,  111,  112,  113,  114,  572,  575,  576,  579,  580,  581,  769,  770
  773,  774,  777,  778,  779,  780,  781,  782,  783,  784,  785,  786, 2134, 2135, 2387, 2388
 2389, 2390, 2391, 2392, 2393, 2394, 2395, 2396, 2397, 2398, 2399, 2400, 4439, 4440, 4441, 4442
*Elset, elset=_PickedSet238, internal, generate
 763,  780,    1
*Nset, nset=_PickedSet239, internal
   27,   28,   29,   30,   65,   66,   67,   68,  415,  418,  419,  422,  423,  424,  564,  565
  568,  569,  572,  573,  574,  575,  576,  577,  578,  579,  580,  581, 1945, 1946, 2124, 2125
 2126, 2127, 2128, 2129, 2130, 2131, 2132, 2133, 2134, 2135, 2136, 2137, 4353, 4354, 4355, 4356
*Elset, elset=_PickedSet239, internal, generate
 391,  408,    1
*Nset, nset=_PickedSet240, internal
   25,   26,   27,   28,   63,   64,   65,   66,  406,  409,  410,  413,  414,  415,  555,  556
  559,  560,  563,  564,  565,  566,  567,  568,  569,  570,  571,  572, 1933, 1934, 2112, 2113
 2114, 2115, 2116, 2117, 2118, 2119, 2120, 2121, 2122, 2123, 2124, 2125, 4349, 4350, 4351, 4352
*Elset, elset=_PickedSet240, internal, generate
 373,  390,    1
*Nset, nset=_PickedSet241, internal
  111,  112,  113,  114,  173,  174,  175,  176,  777,  780,  781,  784,  785,  786, 1066, 1067
 1070, 1071, 1074, 1075, 1076, 1077, 1078, 1079, 1080, 1081, 1082, 1083, 2397, 2398, 2838, 2839
 2840, 2841, 2842, 2843, 2844, 2845, 2846, 2847, 2848, 2849, 2850, 2851, 4598, 4599, 4600, 4601
*Elset, elset=_PickedSet241, internal, generate
 1385,  1402,     1
*Nset, nset=_PickedSet242, internal
  109,  110,  111,  112,  171,  172,  173,  174,  768,  771,  772,  775,  776,  777, 1057, 1058
 1061, 1062, 1065, 1066, 1067, 1068, 1069, 1070, 1071, 1072, 1073, 1074, 2385, 2386, 2826, 2827
 2828, 2829, 2830, 2831, 2832, 2833, 2834, 2835, 2836, 2837, 2838, 2839, 4594, 4595, 4596, 4597
*Elset, elset=_PickedSet242, internal, generate
 1367,  1384,     1
*Nset, nset=_PickedSet243, internal
   63,   64,   65,   66,  109,  110,  111,  112,  563,  566,  567,  570,  571,  572,  760,  761
  764,  765,  768,  769,  770,  771,  772,  773,  774,  775,  776,  777, 2122, 2123, 2375, 2376
 2377, 2378, 2379, 2380, 2381, 2382, 2383, 2384, 2385, 2386, 2387, 2388, 4435, 4436, 4437, 4438
*Elset, elset=_PickedSet243, internal, generate
 745,  762,    1
*Nset, nset=_PickedSet244, internal
   60,   61,   63,   64,  105,  108,  109,  110,  554,  557,  558,  561,  562,  563,  746,  747
  752,  753,  759,  760,  761,  762,  763,  764,  765,  766,  767,  768, 2110, 2111, 2361, 2362
 2365, 2366, 2367, 2368, 2369, 2370, 2371, 2372, 2373, 2374, 2375, 2376, 4431, 4432, 4433, 4434
*Elset, elset=_PickedSet244, internal, generate
 727,  744,    1
*Nset, nset=_PickedSet245, internal
  105,  108,  109,  110,  169,  170,  171,  172,  759,  762,  763,  766,  767,  768, 1048, 1049
 1052, 1053, 1056, 1057, 1058, 1059, 1060, 1061, 1062, 1063, 1064, 1065, 2373, 2374, 2814, 2815
 2816, 2817, 2818, 2819, 2820, 2821, 2822, 2823, 2824, 2825, 2826, 2827, 4590, 4591, 4592, 4593
*Elset, elset=_PickedSet245, internal, generate
 1349,  1366,     1
** Section: Section-2
*Solid Section, elset=_PickedSet232, material=Material-passive
,
** Section: Section-2
*Solid Section, elset=_PickedSet234, material=Material-passive
,
** Section: Section-2
*Solid Section, elset=_PickedSet219, material=Material-passive
,
** Section: Section-2
*Solid Section, elset=_PickedSet220, material=Material-passive
,
** Section: Section-2
*Solid Section, elset=_PickedSet221, material=Material-passive
,
** Section: Section-2
*Solid Section, elset=_PickedSet236, material=Material-passive
,
** Section: Section-2
*Solid Section, elset=_PickedSet233, material=Material-passive
,
** Section: Section-1
*Solid Section, elset=_PickedSet235, material=Material-active
,
** Section: Section-1
*Solid Section, elset=_PickedSet192, material=Material-active
,
** Section: Section-1
*Solid Section, elset=_PickedSet183, material=Material-active
,
** Section: Section-2
*Solid Section, elset=_PickedSet191, material=Material-passive
,
** Section: Section-1
*Solid Section, elset=_PickedSet190, material=Material-active
,
** Section: Section-1
*Solid Section, elset=_PickedSet231, material=Material-active
,
** Section: Section-2
*Solid Section, elset=_PickedSet230, material=Material-passive
,
** Section: Section-2
*Solid Section, elset=_PickedSet217, material=Material-passive
,
** Section: Section-2
*Solid Section, elset=_PickedSet218, material=Material-passive
,
** Section: Section-2
*Solid Section, elset=_PickedSet210, material=Material-passive
,
** Section: Section-1
*Solid Section, elset=_PickedSet211, material=Material-active
,
** Section: Section-2
*Solid Section, elset=_PickedSet222, material=Material-passive
,
** Section: Section-2
*Solid Section, elset=_PickedSet237, material=Material-passive
,
** Section: Section-2
*Solid Section, elset=_PickedSet240, material=Material-passive
,
** Section: Section-2
*Solid Section, elset=_PickedSet239, material=Material-passive
,
** Section: Section-2
*Solid Section, elset=_PickedSet193, material=Material-passive
,
** Section: Section-1
*Solid Section, elset=_PickedSet182, material=Material-active
,
** Section: Section-1
*Solid Section, elset=_PickedSet179, material=Material-active
,
** Section: Section-1
*Solid Section, elset=_PickedSet184, material=Material-active
,
** Section: Section-1
*Solid Section, elset=_PickedSet185, material=Material-active
,
** Section: Section-2
*Solid Section, elset=_PickedSet186, material=Material-passive
,
** Section: Section-1
*Solid Section, elset=_PickedSet189, material=Material-active
,
** Section: Section-2
*Solid Section, elset=_PickedSet228, material=Material-passive
,
** Section: Section-2
*Solid Section, elset=_PickedSet229, material=Material-passive
,
** Section: Section-2
*Solid Section, elset=_PickedSet225, material=Material-passive
,
** Section: Section-2
*Solid Section, elset=_PickedSet216, material=Material-passive
,
** Section: Section-1
*Solid Section, elset=_PickedSet209, material=Material-active
,
** Section: Section-1
*Solid Section, elset=_PickedSet204, material=Material-active
,
** Section: Section-1
*Solid Section, elset=_PickedSet205, material=Material-active
,
** Section: Section-2
*Solid Section, elset=_PickedSet212, material=Material-passive
,
** Section: Section-2
*Solid Section, elset=_PickedSet213, material=Material-passive
,
** Section: Section-1
*Solid Section, elset=_PickedSet244, material=Material-active
,
** Section: Section-2
*Solid Section, elset=_PickedSet243, material=Material-passive
,
** Section: Section-1
*Solid Section, elset=_PickedSet238, material=Material-active
,
** Section: Section-2
*Solid Section, elset=_PickedSet181, material=Material-passive
,
** Section: Section-1
*Solid Section, elset=_PickedSet169, material=Material-active
,
** Section: Section-1
*Solid Section, elset=_PickedSet171, material=Material-active
,
** Section: Section-1
*Solid Section, elset=_PickedSet178, material=Material-active
,
** Section: Section-1
*Solid Section, elset=_PickedSet177, material=Material-active
,
** Section: Section-1
*Solid Section, elset=_PickedSet176, material=Material-active
,
** Section: Section-2
*Solid Section, elset=_PickedSet187, material=Material-passive
,
** Section: Section-2
*Solid Section, elset=_PickedSet188, material=Material-passive
,
** Section: Section-2
*Solid Section, elset=_PickedSet227, material=Material-passive
,
** Section: Section-2
*Solid Section, elset=_PickedSet226, material=Material-passive
,
** Section: Section-2
*Solid Section, elset=_PickedSet224, material=Material-passive
,
** Section: Section-2
*Solid Section, elset=_PickedSet215, material=Material-passive
,
** Section: Section-2
*Solid Section, elset=_PickedSet208, material=Material-passive
,
** Section: Section-2
*Solid Section, elset=_PickedSet202, material=Material-passive
,
** Section: Section-2
*Solid Section, elset=_PickedSet203, material=Material-passive
,
** Section: Section-1
*Solid Section, elset=_PickedSet200, material=Material-active
,
** Section: Section-1
*Solid Section, elset=_PickedSet198, material=Material-active
,
** Section: Section-1
*Solid Section, elset=_PickedSet199, material=Material-active
,
** Section: Section-1
*Solid Section, elset=_PickedSet201, material=Material-active
,
** Section: Section-2
*Solid Section, elset=_PickedSet206, material=Material-passive
,
** Section: Section-1
*Solid Section, elset=_PickedSet207, material=Material-active
,
** Section: Section-1
*Solid Section, elset=_PickedSet214, material=Material-active
,
** Section: Section-2
*Solid Section, elset=_PickedSet223, material=Material-passive
,
** Section: Section-1
*Solid Section, elset=_PickedSet245, material=Material-active
,
** Section: Section-2
*Solid Section, elset=_PickedSet242, material=Material-passive
,
** Section: Section-2
*Solid Section, elset=_PickedSet241, material=Material-passive
,
** Section: Section-2
*Solid Section, elset=_PickedSet195, material=Material-passive
,
** Section: Section-1
*Solid Section, elset=_PickedSet180, material=Material-active
,
** Section: Section-2
*Solid Section, elset=_PickedSet168, material=Material-passive
,
** Section: Section-1
*Solid Section, elset=_PickedSet167, material=Material-active
,
** Section: Section-1
*Solid Section, elset=_PickedSet166, material=Material-active
,
** Section: Section-1
*Solid Section, elset=_PickedSet170, material=Material-active
,
** Section: Section-1
*Solid Section, elset=_PickedSet173, material=Material-active
,
** Section: Section-1
*Solid Section, elset=_PickedSet175, material=Material-active
,
** Section: Section-1
*Solid Section, elset=_PickedSet172, material=Material-active
,
** Section: Section-1
*Solid Section, elset=_PickedSet174, material=Material-active
,
** Section: Section-1
*Solid Section, elset=Set-41, material=Material-active
,
** Section: Section-1
*Solid Section, elset=Set-48, material=Material-active
,
** Section: Section-1
*Solid Section, elset=Set-57, material=Material-active
,
** Section: Section-1
*Solid Section, elset=Set-64, material=Material-active
,
** Section: Section-1
*Solid Section, elset=Set-65, material=Material-active
,
** Section: Section-1
*Solid Section, elset=Set-56, material=Material-active
,
** Section: Section-1
*Solid Section, elset=Set-49, material=Material-active
,
** Section: Section-2
*Solid Section, elset=Set-40, material=Material-passive
,
** Section: Section-2
*Solid Section, elset=Set-33, material=Material-passive
,
** Section: Section-1
*Solid Section, elset=Set-24, material=Material-active
,
** Section: Section-2
*Solid Section, elset=Set-32, material=Material-passive
,
** Section: Section-1
*Solid Section, elset=Set-31, material=Material-active
,
** Section: Section-2
*Solid Section, elset=Set-42, material=Material-passive
,
** Section: Section-1
*Solid Section, elset=Set-47, material=Material-active
,
** Section: Section-1
*Solid Section, elset=Set-58, material=Material-active
,
** Section: Section-1
*Solid Section, elset=Set-63, material=Material-active
,
** Section: Section-1
*Solid Section, elset=Set-71, material=Material-active
,
** Section: Section-2
*Solid Section, elset=Set-72, material=Material-passive
,
** Section: Section-1
*Solid Section, elset=Set-67, material=Material-active
,
** Section: Section-2
*Solid Section, elset=Set-55, material=Material-passive
,
** Section: Section-1
*Solid Section, elset=Set-50, material=Material-active
,
** Section: Section-1
*Solid Section, elset=Set-39, material=Material-active
,
** Section: Section-2
*Solid Section, elset=Set-34, material=Material-passive
,
** Section: Section-2
*Solid Section, elset=Set-23, material=Material-passive
,
** Section: Section-1
*Solid Section, elset=Set-18, material=Material-active
,
** Section: Section-1
*Solid Section, elset=Set-25, material=Material-active
,
** Section: Section-1
*Solid Section, elset=Set-26, material=Material-active
,
** Section: Section-2
*Solid Section, elset=Set-27, material=Material-passive
,
** Section: Section-2
*Solid Section, elset=Set-30, material=Material-passive
,
** Section: Section-1
*Solid Section, elset=Set-43, material=Material-active
,
** Section: Section-1
*Solid Section, elset=Set-46, material=Material-active
,
** Section: Section-1
*Solid Section, elset=Set-59, material=Material-active
,
** Section: Section-1
*Solid Section, elset=Set-62, material=Material-active
,
** Section: Section-2
*Solid Section, elset=Set-73, material=Material-passive
,
** Section: Section-2
*Solid Section, elset=Set-77, material=Material-passive
,
** Section: Section-2
*Solid Section, elset=Set-78, material=Material-passive
,
** Section: Section-2
*Solid Section, elset=Set-70, material=Material-passive
,
** Section: Section-1
*Solid Section, elset=Set-66, material=Material-active
,
** Section: Section-1
*Solid Section, elset=Set-54, material=Material-active
,
** Section: Section-1
*Solid Section, elset=Set-51, material=Material-active
,
** Section: Section-1
*Solid Section, elset=Set-38, material=Material-active
,
** Section: Section-2
*Solid Section, elset=Set-22, material=Material-passive
,
** Section: Section-1
*Solid Section, elset=Set-19, material=Material-active
,
** Section: Section-2
*Solid Section, elset=Set-12, material=Material-passive
,
** Section: Section-1
*Solid Section, elset=Set-17, material=Material-active
,
** Section: Section-2
*Solid Section, elset=Set-16, material=Material-passive
,
** Section: Section-2
*Solid Section, elset=Set-15, material=Material-passive
,
** Section: Section-2
*Solid Section, elset=Set-28, material=Material-passive
,
** Section: Section-2
*Solid Section, elset=Set-29, material=Material-passive
,
** Section: Section-1
*Solid Section, elset=Set-44, material=Material-active
,
** Section: Section-2
*Solid Section, elset=Set-45, material=Material-passive
,
** Section: Section-1
*Solid Section, elset=Set-60, material=Material-active
,
** Section: Section-2
*Solid Section, elset=Set-61, material=Material-passive
,
** Section: Section-1
*Solid Section, elset=Set-74, material=Material-active
,
** Section: Section-2
*Solid Section, elset=Set-75, material=Material-passive
,
** Section: Section-2
*Solid Section, elset=Set-76, material=Material-passive
,
** Section: Section-1
*Solid Section, elset=Set-84, material=Material-active
,
** Section: Section-2
*Solid Section, elset=Set-83, material=Material-passive
,
** Section: Section-2
*Solid Section, elset=Set-82, material=Material-passive
,
** Section: Section-2
*Solid Section, elset=Set-81, material=Material-passive
,
** Section: Section-1
*Solid Section, elset=Set-80, material=Material-active
,
** Section: Section-2
*Solid Section, elset=Set-79, material=Material-passive
,
** Section: Section-2
*Solid Section, elset=Set-69, material=Material-passive
,
** Section: Section-2
*Solid Section, elset=Set-68, material=Material-passive
,
** Section: Section-1
*Solid Section, elset=Set-53, material=Material-active
,
** Section: Section-1
*Solid Section, elset=Set-52, material=Material-active
,
** Section: Section-1
*Solid Section, elset=Set-37, material=Material-active
,
** Section: Section-1
*Solid Section, elset=Set-36, material=Material-active
,
** Section: Section-2
*Solid Section, elset=Set-21, material=Material-passive
,
** Section: Section-2
*Solid Section, elset=Set-20, material=Material-passive
,
** Section: Section-2
*Solid Section, elset=Set-11, material=Material-passive
,
** Section: Section-2
*Solid Section, elset=Set-10, material=Material-passive
,
** Section: Section-2
*Solid Section, elset=Set-9, material=Material-passive
,
** Section: Section-2
*Solid Section, elset=Set-13, material=Material-passive
,
** Section: Section-2
*Solid Section, elset=Set-14, material=Material-passive
,
** Section: Section-2
*Solid Section, elset=Set-8, material=Material-passive
,
** Section: Section-2
*Solid Section, elset=Set-7, material=Material-passive
,
** Section: Section-2
*Solid Section, elset=_PickedSet194, material=Material-passive
,
** Section: Section-1
*Solid Section, elset=Set-35, material=Material-active
,
** Section: Section-1
*Solid Section, elset=_PickedSet196, material=Material-active
,
** Section: Section-1
*Solid Section, elset=_PickedSet197, material=Material-active
,
** Section: Section-1
*Solid Section, elset=_PickedSet165, material=Material-active
,
** Section: Section-1
*Solid Section, elset=_PickedSet164, material=Material-active
,
** Section: Section-2
*Solid Section, elset=Set-85, material=Material-passive
,
** Section: Section-2
*Solid Section, elset=Set-86, material=Material-passive
,
** Section: Section-2
*Solid Section, elset=Set-5, material=Material-passive
,
** Section: Section-2
*Solid Section, elset=Set-6, material=Material-passive
,
*End Part
**  
**
** ASSEMBLY
**
*Assembly, name=Assembly
**  
*Instance, name=Part-1-1, part=Part-1
*End Instance
**  
*Nset, nset=_PickedSet4, internal, instance=Part-1-1
 308, 313, 319, 320
*Nset, nset=_PickedSet5, internal, instance=Part-1-1, generate
    1,  5300,     1
*Elset, elset=_PickedSet5, internal, instance=Part-1-1, generate
    1,  4000,     1
*End Assembly
** 
** MATERIALS
** 
*Material, name=Material-active
*Density
 1e-06,
*Expansion
 0.001,
*Hyperelastic, neo hooke
 0.1, 0.002
*Material, name=Material-passive
*Density
 1e-06,
*Expansion
0.,
*Hyperelastic, neo hooke
 0.1, 0.002
** 
** BOUNDARY CONDITIONS
** 
** Name: BC-1 Type: /
*Boundary
_PickedSet4, 1, 1
_PickedSet4, 2, 2
_PickedSet4, 3, 3
** 
** PREDEFINED FIELDS
** 
** Name: Predefined Field-1   Type: Temperature
*Initial Conditions, type=TEMPERATURE
_PickedSet5, 25.
** ----------------------------------------------------------------
** 
** STEP: Step-1
** 
*Step, name=Step-1, nlgeom=YES, inc=10000
*Static
0.1, 6., 1e-05, 0.5
** 
** PREDEFINED FIELDS
** 
** Name: Predefined Field-1   Type: Temperature
*Temperature
_PickedSet5, 85.
** 
** OUTPUT REQUESTS
** 
*Restart, write, frequency=0
** 
** FIELD OUTPUT: F-Output-1
** 
*Output, field, number interval=4
*Node Output
NT, U
*Element Output, directions=YES
S, TEMP
** 
** HISTORY OUTPUT: H-Output-1
** 
*Output, history, variable=PRESELECT
*End Step
