*Heading
** Job name: curvedsurface Model name: Model-1
** Generated by: Abaqus/CAE 2020
*Preprint, echo=NO, model=NO, history=NO, contact=NO
**
** PARTS
**
*Part, name=Part-1
*Node
      1,           3.,         19.5,          0.5
      2,           3.,         22.5,          0.5
      3,           0.,         22.5,          0.5
      4,           0.,         19.5,          0.5
      5,           3.,         22.5,           0.
      6,           0.,         22.5,           0.
      7,           0.,         19.5,           0.
      8,           3.,         19.5,           0.
      9,           3.,         25.5,          0.5
     10,           0.,         25.5,          0.5
     11,           3.,         25.5,           0.
     12,           0.,         25.5,           0.
     13,           3.,         28.5,          0.5
     14,           0.,         28.5,          0.5
     15,           3.,         28.5,           0.
     16,           0.,         28.5,           0.
     17,           3.,         31.5,          0.5
     18,           0.,         31.5,          0.5
     19,           0.,         31.5,           0.
     20,           3.,         31.5,           0.
** ... 5310 like lines cut
*Element, type=C3D8H
 1,  327, 1833, 4275, 1829,    1,  310, 1821,  317
 2, 1833, 1834, 4276, 4275,  310,  311, 1822, 1821
 3, 1834,  329, 1831, 4276,  311,    2,  312, 1822
 4, 1829, 4275, 4277, 1830,  317, 1821, 1823,  316
 5, 4275, 4276, 4278, 4277, 1821, 1822, 1824, 1823
 6, 4276, 1831, 1832, 4278, 1822,  312,  313, 1824
 7, 1830, 4277, 1835,  326,  316, 1823,  315,    4
 8, 4277, 4278, 1836, 1835, 1823, 1824,  314,  315
 9, 4278, 1832,  328, 1836, 1824,  313,    3,  314
10,    8,  319, 1825,  324,  327, 1833, 4275, 1829
11,  319,  318, 1826, 1825, 1833, 1834, 4276, 4275
12,  318,    5,  321, 1826, 1834,  329, 1831, 4276
13,  324, 1825, 1827,  325, 1829, 4275, 4277, 1830
14, 1825, 1826, 1828, 1827, 4275, 4276, 4278, 4277
15, 1826,  321,  320, 1828, 4276, 1831, 1832, 4278
16,  325, 1827,  322,    7, 1830, 4277, 1835,  326
17, 1827, 1828,  323,  322, 4277, 4278, 1836, 1835
18, 1828,  320,    6,  323, 4278, 1832,  328, 1836
19,  329, 1847, 4279, 1831,    2,  330, 1837,  312
20, 1847, 1848, 4280, 4279,  330,  331, 1838, 1837
** ... 4020 like lines cut
*Nset, nset=Set-11
  191,  192,  292,  293,  295,  296,  297,  305,  306,  307, 1193, 1194, 1195, 1196, 1197, 1198
 1199, 1200, 1201, 1202, 1203, 1739, 1740, 1741, 1742, 1743, 1744, 1745, 1746, 1747, 1748, 1749
 1750, 1751, 1766, 1767, 1768, 1769, 1770, 1771, 1772, 1773, 1801, 1802, 1803, 1804, 1805, 1806
 1807, 1808, 1809, 1810, 1811, 3967, 3968, 3969, 3970, 3971, 3972, 3973, 3974, 3975, 3976, 3977
 4029, 4030, 4031, 4032, 4033, 4034, 4035, 4036, 4037, 4038, 4039, 4040, 4041, 4042, 4043, 4044
 4045, 4046, 4047, 4048, 4049, 4050, 4051, 4052, 4053, 4054, 4055, 4056, 4057, 4058, 4059, 4060
 4061, 4062, 4063, 4064, 4065, 4066, 4188, 4189, 4190, 4191, 4192, 4193, 4194, 4195, 4196, 4197
 4198, 4199, 4200, 4201, 4202, 4203, 4204, 4205, 4206, 4207, 4208, 4209, 4210, 4211, 4212, 4213
 4214, 4215, 4216, 4217, 4218, 4219, 4220, 4221, 4222, 4223, 4224, 4225, 4226, 4227, 4228, 4229
 4230, 4231, 4232, 4233, 5259, 5260, 5261, 5262, 5263, 5264, 5265, 5266, 5267, 5268, 5269, 5270
 5271, 5272, 5273, 5274, 5275, 5276, 5277, 5278, 5279, 5280, 5281, 5282, 5283, 5284, 5285, 5286
 5287, 5288, 5289, 5290, 5291, 5292, 5293, 5294, 5295, 5296
*Elset, elset=Set-11, generate
 3853,  3950,     1
*Nset, nset=Set-12
  191,  195,  292,  294,  295,  301,  302,  305,  308,  309, 1223, 1224, 1225, 1226, 1227, 1228
 1229, 1230, 1231, 1232, 1233, 1751, 1754, 1755, 1756, 1757, 1758, 1759, 1760, 1761, 1762, 1763
 1764, 1765, 1766, 1785, 1786, 1787, 1788, 1789, 1790, 1791, 1801, 1804, 1812, 1813, 1814, 1815
 1816, 1817, 1818, 1819, 1820, 4004, 4005, 4006, 4007, 4008, 4009, 4010, 4011, 4012, 4013, 4014
 4113, 4114, 4115, 4116, 4117, 4118, 4119, 4120, 4121, 4122, 4123, 4124, 4125, 4126, 4127, 4128
 4129, 4130, 4131, 4132, 4133, 4134, 4135, 4136, 4137, 4138, 4139, 4140, 4141, 4142, 4143, 4144
 4145, 4146, 4233, 4234, 4235, 4236, 4237, 4238, 4239, 4240, 4241, 4242, 4243, 4244, 4245, 4246
 4247, 4248, 4249, 4250, 4251, 4252, 4253, 4254, 4255, 4256, 4257, 4258, 4259, 4260, 4261, 4262
 4263, 4264, 4265, 4266, 4267, 4268, 4269, 4270, 4271, 4272, 4273, 4274, 5297, 5298, 5299, 5300
 5301, 5302, 5303, 5304, 5305, 5306, 5307, 5308, 5309, 5310, 5311, 5312, 5313, 5314, 5315, 5316
 5317, 5318, 5319, 5320, 5321, 5322, 5323, 5324, 5325, 5326, 5327, 5328, 5329, 5330
*Elset, elset=Set-12, generate
 3951,  4040,     1
*Nset, nset=Set-13
  127,  131,  134,  191,  195,  260,  262,  264,  292,  294,  817,  818,  832,  833,  834,  835
  836,  837,  838,  839, 1189, 1190, 1221, 1222, 1223, 1224, 1225, 1226, 1227, 1228, 1229, 1230
 1231, 1232, 1233, 1532, 1535, 1536, 1537, 1546, 1547, 1548, 1549, 1550, 1551, 1552, 1553, 1556
 1735, 1736, 1751, 1752, 1753, 1754, 1755, 1756, 1757, 1758, 1759, 1760, 1761, 1762, 1763, 1764
 1765, 3088, 3089, 3090, 3091, 3092, 3093, 3094, 3095, 3096, 3097, 3098, 3099, 3100, 3101, 3102
 3103, 3104, 3105, 3106, 3107, 3108, 3109, 3553, 3554, 3583, 3584, 3585, 3586, 3587, 3588, 3589
 3590, 3978, 3979, 3982, 3983, 3984, 3985, 3986, 3987, 3988, 3989, 3990, 3991, 3992, 3993, 3994
 3995, 3996, 3997, 3998, 3999, 4000, 4001, 4002, 4003, 4004, 4005, 4006, 4007, 4008, 4009, 4010
 4011, 4012, 4013, 4014, 4015, 4016, 5157, 5158, 5159, 5160, 5161, 5162, 5163, 5164, 5165, 5166
 5167, 5168, 5169, 5170, 5171, 5172, 5173, 5174, 5175, 5176, 5177, 5178
*Elset, elset=Set-13, generate
 3557,  3628,     1
*Nset, nset=Set-14
  127,  128,  189,  191,  192,  260,  261,  291,  292,  293,  805,  806, 1168, 1169, 1170, 1171
 1172, 1173, 1174, 1175, 1189, 1190, 1191, 1192, 1193, 1194, 1195, 1196, 1197, 1198, 1199, 1200
 1201, 1202, 1203, 1529, 1530, 1531, 1532, 1724, 1725, 1726, 1727, 1728, 1729, 1730, 1731, 1734
 1735, 1736, 1737, 1738, 1739, 1740, 1741, 1742, 1743, 1744, 1745, 1746, 1747, 1748, 1749, 1750
 1751, 3029, 3030, 3031, 3032, 3033, 3034, 3035, 3036, 3037, 3038, 3039, 3040, 3041, 3042, 3043
 3044, 3045, 3046, 3047, 3048, 3049, 3050, 3543, 3544, 3937, 3938, 3939, 3940, 3941, 3942, 3943
 3944, 3945, 3946, 3947, 3948, 3949, 3950, 3951, 3952, 3953, 3954, 3955, 3956, 3957, 3958, 3959
 3960, 3961, 3962, 3963, 3964, 3965, 3966, 3967, 3968, 3969, 3970, 3971, 3972, 3973, 3974, 3975
 3976, 3977, 3978, 3979, 3980, 3981, 5135, 5136, 5137, 5138, 5139, 5140, 5141, 5142, 5143, 5144
 5145, 5146, 5147, 5148, 5149, 5150, 5151, 5152, 5153, 5154, 5155, 5156
*Elset, elset=Set-14, generate
 3485,  3556,     1
*Nset, nset=Set-15
  125,  128,  187,  189,  259,  261,  290,  291,  803,  804, 1147, 1148, 1149, 1150, 1151, 1152
 1153, 1154, 1168, 1169, 1170, 1171, 1172, 1173, 1174, 1175, 1176, 1177, 1524, 1527, 1528, 1531
 1713, 1714, 1715, 1716, 1717, 1718, 1719, 1720, 1723, 1724, 1725, 1726, 1727, 1728, 1729, 1730
 1731, 1732, 1733, 1734, 2987, 2988, 2989, 2990, 2991, 2992, 2993, 2994, 2995, 2996, 2997, 2998
 2999, 3000, 3001, 3002, 3547, 3548, 3911, 3912, 3913, 3914, 3915, 3916, 3917, 3918, 3919, 3920
 3921, 3922, 3923, 3924, 3925, 3926, 3927, 3928, 3929, 3930, 3931, 3932, 3933, 3934, 3935, 3936
 3937, 3938, 3939, 3940, 3941, 3942, 3943, 3944, 5119, 5120, 5121, 5122, 5123, 5124, 5125, 5126
 5127, 5128, 5129, 5130, 5131, 5132, 5133, 5134
*Elset, elset=Set-15, generate
 3431,  3484,     1
*Nset, nset=Set-16
   79,  125,  127,  128,  236,  259,  260,  261,  792,  793,  801,  802,  803,  804,  805,  806
 1422, 1520, 1521, 1524, 1525, 1526, 1527, 1528, 1529, 1530, 1531, 1532, 2395, 2396, 2397, 2398
 3537, 3538, 3539, 3540, 3541, 3542, 3543, 3544, 3545, 3546, 3547, 3548, 4907, 4908, 4909, 4910
*Elset, elset=Set-16, generate
 2625,  2642,     1
*Nset, nset=Set-17
   79,   80,  127,  131,  236,  237,  260,  262,  607,  608,  801,  802,  815,  816,  817,  818
 1417, 1418, 1421, 1422, 1525, 1526, 1532, 1533, 1534, 1535, 1536, 1537, 2409, 2410, 2411, 2412
 3385, 3386, 3545, 3546, 3549, 3550, 3551, 3552, 3553, 3554, 3555, 3556, 4911, 4912, 4913, 4914
*Elset, elset=Set-17, generate
 2643,  2660,     1
*Nset, nset=Set-18
   80,  131,  133,  134,  237,  262,  263,  264,  815,  816,  824,  825,  826,  827,  828,  829
  830,  831,  832,  833,  834,  835,  836,  837,  838,  839,  840,  841, 1421, 1533, 1534, 1537
 1538, 1539, 1540, 1541, 1542, 1543, 1544, 1545, 1546, 1547, 1548, 1549, 1550, 1551, 1552, 1553
 1554, 1555, 1556, 1557, 2421, 2422, 2423, 2424, 2425, 2426, 2427, 2428, 2429, 2430, 2431, 2432
 2433, 2434, 2435, 2436, 3555, 3556, 3557, 3558, 3559, 3560, 3561, 3562, 3563, 3564, 3565, 3566
 3567, 3568, 3569, 3570, 3571, 3572, 3573, 3574, 3575, 3576, 3577, 3578, 3579, 3580, 3581, 3582
 3583, 3584, 3585, 3586, 3587, 3588, 3589, 3590, 4915, 4916, 4917, 4918, 4919, 4920, 4921, 4922
 4923, 4924, 4925, 4926, 4927, 4928, 4929, 4930
*Elset, elset=Set-18, generate
 2661,  2714,     1
*Nset, nset=Set-19
   37,   80,   84,  133,  137,  215,  237,  239,  263,  265,  609,  610,  621,  622,  824,  825
  826,  827,  828,  829,  830,  831,  862,  863,  864,  865,  866,  867,  868, 1329, 1419, 1420
 1421, 1425, 1426, 1429, 1538, 1539, 1540, 1541, 1542, 1543, 1544, 1545, 1557, 1558, 1559, 1560
 1561, 1562, 1563, 1564, 1565, 2471, 2472, 2473, 2474, 2475, 2476, 2477, 2478, 2479, 2480, 2481
 2482, 2483, 2484, 2485, 2486, 3381, 3382, 3395, 3396, 3575, 3576, 3577, 3578, 3579, 3580, 3581
 3582, 3591, 3592, 3593, 3594, 3595, 3596, 3597, 3598, 3599, 3600, 3601, 3602, 3603, 3604, 3605
 3606, 3607, 3608, 3609, 3610, 3611, 3612, 3613, 4931, 4932, 4933, 4934, 4935, 4936, 4937, 4938
 4939, 4940, 4941, 4942, 4943, 4944, 4945, 4946
*Elset, elset=Set-19, generate
 2715,  2768,     1
*Nset, nset=Set-20
   37,   40,   79,   80,  215,  218,  236,  237,  442,  443,  605,  606,  607,  608,  609,  610
 1326, 1327, 1328, 1329, 1415, 1416, 1417, 1418, 1419, 1420, 1421, 1422, 2157, 2158, 2159, 2160
 3243, 3244, 3377, 3378, 3379, 3380, 3381, 3382, 3383, 3384, 3385, 3386, 4831, 4832, 4833, 4834
*Elset, elset=Set-20, generate
 2283,  2300,     1
*Nset, nset=Set-21
   40,   77,   79,  125,  218,  235,  236,  259,  596,  597,  605,  606,  792,  793,  794,  795
 1328, 1410, 1411, 1414, 1415, 1416, 1422, 1520, 1521, 1522, 1523, 1524, 2383, 2384, 2385, 2386
 3375, 3376, 3383, 3384, 3531, 3532, 3533, 3534, 3535, 3536, 3537, 3538, 4903, 4904, 4905, 4906
*Elset, elset=Set-21, generate
 2607,  2624,     1
*Nset, nset=Set-22
   77,  123,  125,  185,  187,  235,  258,  259,  289,  290,  785,  786,  794,  795, 1132, 1133
 1134, 1135, 1136, 1147, 1148, 1149, 1150, 1151, 1152, 1153, 1154, 1155, 1156, 1414, 1517, 1518
 1519, 1522, 1523, 1524, 1705, 1706, 1707, 1708, 1709, 1712, 1713, 1714, 1715, 1716, 1717, 1718
 1719, 1720, 1721, 1722, 1723, 2945, 2946, 2947, 2948, 2949, 2950, 2951, 2952, 2953, 2954, 2955
 2956, 2957, 2958, 2959, 2960, 3527, 3528, 3535, 3536, 3888, 3889, 3890, 3891, 3892, 3893, 3894
 3895, 3896, 3897, 3898, 3899, 3900, 3901, 3902, 3903, 3904, 3905, 3906, 3907, 3908, 3909, 3910
 3911, 3912, 3913, 3914, 3915, 3916, 3917, 3918, 5103, 5104, 5105, 5106, 5107, 5108, 5109, 5110
 5111, 5112, 5113, 5114, 5115, 5116, 5117, 5118
*Elset, elset=Set-22, generate
 3377,  3430,     1
*Nset, nset=Set-23
  121,  123,  183,  185,  257,  258,  288,  289,  783,  784, 1117, 1118, 1119, 1120, 1121, 1132
 1133, 1134, 1135, 1136, 1137, 1138, 1514, 1515, 1516, 1519, 1697, 1698, 1699, 1700, 1701, 1704
 1705, 1706, 1707, 1708, 1709, 1710, 1711, 1712, 2918, 2919, 2920, 2921, 2922, 2923, 2924, 2925
 2926, 2927, 3529, 3530, 3871, 3872, 3873, 3874, 3875, 3876, 3877, 3878, 3879, 3880, 3881, 3882
 3883, 3884, 3885, 3886, 3887, 3888, 3889, 3890, 3891, 3892, 5093, 5094, 5095, 5096, 5097, 5098
 5099, 5100, 5101, 5102
*Elset, elset=Set-23, generate
 3341,  3376,     1
*Nset, nset=Set-24
   75,   77,  121,  123,  234,  235,  257,  258,  598,  599,  774,  775,  783,  784,  785,  786
 1409, 1412, 1413, 1414, 1510, 1511, 1514, 1515, 1516, 1517, 1518, 1519, 2371, 2372, 2373, 2374
 3373, 3374, 3521, 3522, 3523, 3524, 3525, 3526, 3527, 3528, 3529, 3530, 4899, 4900, 4901, 4902
*Elset, elset=Set-24, generate
 2589,  2606,     1
*Nset, nset=Set-25
   39,   40,   75,   77,  217,  218,  234,  235,  440,  441,  587,  588,  596,  597,  598,  599
 1324, 1325, 1328, 1330, 1405, 1406, 1409, 1410, 1411, 1412, 1413, 1414, 2145, 2146, 2147, 2148
 3249, 3250, 3367, 3368, 3369, 3370, 3371, 3372, 3373, 3374, 3375, 3376, 4827, 4828, 4829, 4830
*Elset, elset=Set-25, generate
 2265,  2282,     1
*Nset, nset=Set-26
   37,   38,   39,   40,  215,  216,  217,  218,  436,  437,  438,  439,  440,  441,  442,  443
 1320, 1321, 1322, 1323, 1324, 1325, 1326, 1327, 1328, 1329, 1330, 1331, 1955, 1956, 1957, 1958
 3239, 3240, 3241, 3242, 3243, 3244, 3245, 3246, 3247, 3248, 3249, 3250, 4767, 4768, 4769, 4770
*Elset, elset=Set-26, generate
 1995,  2012,     1
*Nset, nset=Set-27
   37,   38,   83,   84,  215,  216,  238,  239,  436,  437,  619,  620,  621,  622,  623,  624
 1320, 1321, 1329, 1331, 1423, 1424, 1425, 1426, 1427, 1428, 1429, 1430, 2171, 2172, 2173, 2174
 3247, 3248, 3387, 3388, 3389, 3390, 3391, 3392, 3393, 3394, 3395, 3396, 4835, 4836, 4837, 4838
*Elset, elset=Set-27, generate
 2301,  2318,     1
*Nset, nset=Set-28
   83,   84,  137,  139,  238,  239,  265,  266,  623,  624,  862,  863,  864,  865,  866,  877
  878,  879,  880,  881,  882,  883, 1427, 1428, 1429, 1430, 1558, 1559, 1560, 1561, 1562, 1565
 1566, 1567, 1568, 1569, 1570, 1571, 1572, 1573, 2510, 2511, 2512, 2513, 2514, 2515, 2516, 2517
 2518, 2519, 3391, 3392, 3609, 3610, 3611, 3612, 3613, 3614, 3615, 3616, 3617, 3618, 3619, 3620
 3621, 3622, 3623, 3624, 3625, 3626, 3627, 3628, 3629, 3630, 4947, 4948, 4949, 4950, 4951, 4952
 4953, 4954, 4955, 4956
*Elset, elset=Set-28, generate
 2769,  2804,     1
*Nset, nset=Set-29
   45,   83,   88,  139,  141,  219,  238,  241,  266,  267,  633,  634,  639,  640,  877,  878
  879,  880,  881,  892,  893,  894,  895, 1342, 1430, 1431, 1432, 1435, 1436, 1439, 1566, 1567
 1568, 1569, 1570, 1573, 1574, 1575, 1576, 1577, 1578, 2537, 2538, 2539, 2540, 2541, 2542, 2543
 2544, 2545, 2546, 3401, 3402, 3411, 3412, 3626, 3627, 3628, 3629, 3630, 3631, 3632, 3633, 3634
 3635, 3636, 3637, 3638, 3639, 3640, 3641, 3642, 3643, 3644, 4957, 4958, 4959, 4960, 4961, 4962
 4963, 4964, 4965, 4966
*Elset, elset=Set-29, generate
 2805,  2840,     1
*Nset, nset=Set-30
    1,   38,   45,   83,  197,  216,  219,  238,  456,  457,  468,  469,  619,  620,  633,  634
 1257, 1331, 1332, 1333, 1340, 1341, 1342, 1423, 1424, 1430, 1431, 1432, 2185, 2186, 2187, 2188
 3257, 3258, 3263, 3264, 3393, 3394, 3397, 3398, 3399, 3400, 3401, 3402, 4839, 4840, 4841, 4842
*Elset, elset=Set-30, generate
 2319,  2336,     1
*Nset, nset=Set-31
    1,    4,   38,   39,  197,  200,  216,  217,  316,  317,  438,  439,  456,  457,  458,  459
 1254, 1255, 1256, 1257, 1322, 1323, 1330, 1331, 1332, 1333, 1334, 1335, 1971, 1972, 1973, 1974
 3149, 3150, 3245, 3246, 3251, 3252, 3253, 3254, 3255, 3256, 3257, 3258, 4771, 4772, 4773, 4774
*Elset, elset=Set-31, generate
 2013,  2030,     1
*Nset, nset=Set-32
    4,   35,   39,   75,  200,  214,  217,  234,  427,  428,  458,  459,  587,  588,  589,  590
 1256, 1315, 1316, 1319, 1330, 1334, 1335, 1405, 1406, 1407, 1408, 1409, 2133, 2134, 2135, 2136
 3237, 3238, 3255, 3256, 3361, 3362, 3363, 3364, 3365, 3366, 3367, 3368, 4823, 4824, 4825, 4826
*Elset, elset=Set-32, generate
 2247,  2264,     1
*Nset, nset=Set-33
   35,   73,   75,  121,  214,  233,  234,  257,  578,  579,  589,  590,  774,  775,  776,  777
 1319, 1400, 1401, 1404, 1407, 1408, 1409, 1510, 1511, 1512, 1513, 1514, 2359, 2360, 2361, 2362
 3359, 3360, 3365, 3366, 3515, 3516, 3517, 3518, 3519, 3520, 3521, 3522, 4895, 4896, 4897, 4898
*Elset, elset=Set-33, generate
 2571,  2588,     1
*Nset, nset=Set-34
   73,  118,  121,  181,  183,  233,  256,  257,  287,  288,  764,  765,  776,  777, 1108, 1109
 1117, 1118, 1119, 1120, 1121, 1122, 1123, 1404, 1506, 1507, 1508, 1512, 1513, 1514, 1692, 1693
 1696, 1697, 1698, 1699, 1700, 1701, 1702, 1703, 1704, 2891, 2892, 2893, 2894, 2895, 2896, 2897
 2898, 2899, 2900, 3509, 3510, 3519, 3520, 3857, 3858, 3859, 3860, 3861, 3862, 3863, 3864, 3865
 3866, 3867, 3868, 3869, 3870, 3871, 3872, 3873, 3874, 3875, 5083, 5084, 5085, 5086, 5087, 5088
 5089, 5090, 5091, 5092
*Elset, elset=Set-34, generate
 3305,  3340,     1
*Nset, nset=Set-35
   87,   88,  141,  143,  240,  241,  267,  268,  641,  642,  892,  893,  901,  902,  903,  904
 1437, 1438, 1439, 1440, 1574, 1575, 1578, 1579, 1580, 1581, 1582, 1583, 2561, 2562, 2563, 2564
 3407, 3408, 3643, 3644, 3645, 3646, 3647, 3648, 3649, 3650, 3651, 3652, 4967, 4968, 4969, 4970
*Elset, elset=Set-35, generate
 2841,  2858,     1
*Nset, nset=Set-36
   45,   46,   87,   88,  219,  220,  240,  241,  464,  465,  637,  638,  639,  640,  641,  642
 1336, 1337, 1342, 1343, 1433, 1434, 1435, 1436, 1437, 1438, 1439, 1440, 2195, 2196, 2197, 2198
 3267, 3268, 3403, 3404, 3405, 3406, 3407, 3408, 3409, 3410, 3411, 3412, 4843, 4844, 4845, 4846
*Elset, elset=Set-36, generate
 2337,  2354,     1
*Nset, nset=Set-37
    1,    2,   45,   46,  197,  198,  219,  220,  310,  311,  464,  465,  466,  467,  468,  469
 1248, 1249, 1257, 1259, 1336, 1337, 1338, 1339, 1340, 1341, 1342, 1343, 1983, 1984, 1985, 1986
 3153, 3154, 3259, 3260, 3261, 3262, 3263, 3264, 3265, 3266, 3267, 3268, 4775, 4776, 4777, 4778
*Elset, elset=Set-37, generate
 2031,  2048,     1
*Nset, nset=Set-38
    1,    2,    3,    4,  197,  198,  199,  200,  310,  311,  312,  313,  314,  315,  316,  317
 1248, 1249, 1250, 1251, 1252, 1253, 1254, 1255, 1256, 1257, 1258, 1259, 1821, 1822, 1823, 1824
 3145, 3146, 3147, 3148, 3149, 3150, 3151, 3152, 3153, 3154, 3155, 3156, 4727, 4728, 4729, 4730
*Elset, elset=Set-38, generate
 1815,  1832,     1
*Nset, nset=Set-39
    3,    4,   33,   35,  199,  200,  213,  214,  314,  315,  418,  419,  427,  428,  429,  430
 1252, 1253, 1256, 1258, 1310, 1311, 1314, 1315, 1316, 1317, 1318, 1319, 1943, 1944, 1945, 1946
 3155, 3156, 3229, 3230, 3231, 3232, 3233, 3234, 3235, 3236, 3237, 3238, 4763, 4764, 4765, 4766
*Elset, elset=Set-39, generate
 1977,  1994,     1
*Nset, nset=Set-40
   33,   35,   71,   73,  213,  214,  232,  233,  429,  430,  569,  570,  578,  579,  580,  581
 1314, 1317, 1318, 1319, 1395, 1396, 1399, 1400, 1401, 1402, 1403, 1404, 2121, 2122, 2123, 2124
 3235, 3236, 3351, 3352, 3353, 3354, 3355, 3356, 3357, 3358, 3359, 3360, 4819, 4820, 4821, 4822
*Elset, elset=Set-40, generate
 2229,  2246,     1
*Nset, nset=Set-41
   71,   73,  117,  118,  232,  233,  255,  256,  580,  581,  760,  761,  762,  763,  764,  765
 1399, 1402, 1403, 1404, 1502, 1503, 1504, 1505, 1506, 1507, 1508, 1509, 2345, 2346, 2347, 2348
 3357, 3358, 3505, 3506, 3507, 3508, 3509, 3510, 3511, 3512, 3513, 3514, 4891, 4892, 4893, 4894
*Elset, elset=Set-41, generate
 2553,  2570,     1
*Nset, nset=Set-42
  117,  118,  179,  181,  255,  256,  286,  287,  762,  763, 1095, 1096, 1108, 1109, 1110, 1111
 1504, 1505, 1508, 1509, 1685, 1686, 1691, 1692, 1693, 1694, 1695, 1696, 2879, 2880, 2881, 2882
 3513, 3514, 3849, 3850, 3851, 3852, 3853, 3854, 3855, 3856, 3857, 3858, 5079, 5080, 5081, 5082
*Elset, elset=Set-42, generate
 3287,  3304,     1
*Nset, nset=Set-43
   87,   91,  143,  145,  240,  242,  268,  269,  653,  654,  901,  902,  910,  911,  912,  913
 1440, 1443, 1444, 1445, 1579, 1580, 1583, 1584, 1585, 1586, 1587, 1588, 2573, 2574, 2575, 2576
 3417, 3418, 3651, 3652, 3653, 3654, 3655, 3656, 3657, 3658, 3659, 3660, 4971, 4972, 4973, 4974
*Elset, elset=Set-43, generate
 2859,  2876,     1
*Nset, nset=Set-44
   46,   49,   87,   91,  220,  221,  240,  242,  480,  481,  637,  638,  651,  652,  653,  654
 1343, 1346, 1347, 1348, 1433, 1434, 1440, 1441, 1442, 1443, 1444, 1445, 2209, 2210, 2211, 2212
 3273, 3274, 3409, 3410, 3413, 3414, 3415, 3416, 3417, 3418, 3419, 3420, 4847, 4848, 4849, 4850
*Elset, elset=Set-44, generate
 2355,  2372,     1
*Nset, nset=Set-45
    2,    9,   46,   49,  198,  201,  220,  221,  330,  331,  466,  467,  478,  479,  480,  481
 1259, 1260, 1261, 1267, 1338, 1339, 1343, 1344, 1345, 1346, 1347, 1348, 1997, 1998, 1999, 2000
 3163, 3164, 3265, 3266, 3269, 3270, 3271, 3272, 3273, 3274, 3275, 3276, 4779, 4780, 4781, 4782
*Elset, elset=Set-45, generate
 2049,  2066,     1
*Nset, nset=Set-46
    2,    3,    9,   10,  198,  199,  201,  202,  312,  313,  330,  331,  332,  333,  334,  335
 1250, 1251, 1258, 1259, 1260, 1261, 1262, 1263, 1264, 1265, 1266, 1267, 1837, 1838, 1839, 1840
 3151, 3152, 3157, 3158, 3159, 3160, 3161, 3162, 3163, 3164, 3165, 3166, 4731, 4732, 4733, 4734
*Elset, elset=Set-46, generate
 1833,  1850,     1
*Nset, nset=Set-47
    3,   10,   31,   33,  199,  202,  212,  213,  334,  335,  409,  410,  418,  419,  420,  421
 1258, 1264, 1265, 1266, 1305, 1306, 1309, 1310, 1311, 1312, 1313, 1314, 1931, 1932, 1933, 1934
 3165, 3166, 3221, 3222, 3223, 3224, 3225, 3226, 3227, 3228, 3229, 3230, 4759, 4760, 4761, 4762
*Elset, elset=Set-47, generate
 1959,  1976,     1
*Nset, nset=Set-48
   31,   33,   69,   71,  212,  213,  231,  232,  420,  421,  560,  561,  569,  570,  571,  572
 1309, 1312, 1313, 1314, 1390, 1391, 1394, 1395, 1396, 1397, 1398, 1399, 2109, 2110, 2111, 2112
 3227, 3228, 3343, 3344, 3345, 3346, 3347, 3348, 3349, 3350, 3351, 3352, 4815, 4816, 4817, 4818
*Elset, elset=Set-48, generate
 2211,  2228,     1
*Nset, nset=Set-49
   69,   71,  115,  117,  231,  232,  254,  255,  571,  572,  751,  752,  760,  761, 1097, 1098
 1394, 1397, 1398, 1399, 1497, 1498, 1501, 1502, 1503, 1509, 1687, 1688, 3349, 3350, 3503, 3504
 3511, 3512, 3847, 3848, 4017, 4018, 4019, 4020, 4025, 4026, 4027, 4028, 5183, 5184, 5185, 5186
*Elset, elset=Set-49, generate
 3647,  3664,     1
*Nset, nset=Set-50
  115,  117,  177,  179,  254,  255,  285,  286, 1086, 1087, 1095, 1096, 1097, 1098, 1099, 1100
 1501, 1509, 1680, 1681, 1684, 1685, 1686, 1687, 1688, 1689, 1690, 1691, 2865, 2866, 2867, 2868
 3839, 3840, 3841, 3842, 3843, 3844, 3845, 3846, 3847, 3848, 3849, 3850, 5075, 5076, 5077, 5078
*Elset, elset=Set-50, generate
 3269,  3286,     1
*Nset, nset=Set-51
   91,   93,  145,  147,  242,  243,  269,  270,  662,  663,  910,  911,  919,  920,  921,  922
 1445, 1448, 1449, 1450, 1584, 1585, 1588, 1589, 1590, 1591, 1592, 1593, 2585, 2586, 2587, 2588
 3425, 3426, 3659, 3660, 3661, 3662, 3663, 3664, 3665, 3666, 3667, 3668, 4975, 4976, 4977, 4978
*Elset, elset=Set-51, generate
 2877,  2894,     1
*Nset, nset=Set-52
   49,   51,   91,   93,  221,  222,  242,  243,  489,  490,  651,  652,  660,  661,  662,  663
 1348, 1351, 1352, 1353, 1441, 1442, 1445, 1446, 1447, 1448, 1449, 1450, 2221, 2222, 2223, 2224
 3281, 3282, 3419, 3420, 3421, 3422, 3423, 3424, 3425, 3426, 3427, 3428, 4851, 4852, 4853, 4854
*Elset, elset=Set-52, generate
 2373,  2390,     1
*Nset, nset=Set-53
    9,   13,   49,   51,  201,  203,  221,  222,  344,  345,  478,  479,  487,  488,  489,  490
 1267, 1268, 1269, 1275, 1344, 1345, 1348, 1349, 1350, 1351, 1352, 1353, 2009, 2010, 2011, 2012
 3173, 3174, 3275, 3276, 3277, 3278, 3279, 3280, 3281, 3282, 3283, 3284, 4783, 4784, 4785, 4786
*Elset, elset=Set-53, generate
 2067,  2084,     1
*Nset, nset=Set-54
    9,   10,   13,   14,  201,  202,  203,  204,  332,  333,  344,  345,  346,  347,  348,  349
 1262, 1263, 1266, 1267, 1268, 1269, 1270, 1271, 1272, 1273, 1274, 1275, 1851, 1852, 1853, 1854
 3161, 3162, 3167, 3168, 3169, 3170, 3171, 3172, 3173, 3174, 3175, 3176, 4735, 4736, 4737, 4738
*Elset, elset=Set-54, generate
 1851,  1868,     1
*Nset, nset=Set-55
   10,   14,   29,   31,  202,  204,  211,  212,  348,  349,  402,  403,  409,  410,  411,  412
 1266, 1272, 1273, 1274, 1302, 1303, 1304, 1305, 1306, 1307, 1308, 1309, 1919, 1920, 1921, 1922
 3171, 3172, 3211, 3212, 3215, 3216, 3217, 3218, 3219, 3220, 3221, 3222, 4755, 4756, 4757, 4758
*Elset, elset=Set-55, generate
 1941,  1958,     1
*Nset, nset=Set-56
   29,   31,   67,   69,  211,  212,  230,  231,  411,  412,  551,  552,  560,  561,  562,  563
 1304, 1307, 1308, 1309, 1385, 1386, 1389, 1390, 1391, 1392, 1393, 1394, 2097, 2098, 2099, 2100
 3219, 3220, 3335, 3336, 3337, 3338, 3339, 3340, 3341, 3342, 3343, 3344, 4811, 4812, 4813, 4814
*Elset, elset=Set-56, generate
 2193,  2210,     1
*Nset, nset=Set-57
   67,   69,  113,  115,  230,  231,  253,  254,  562,  563,  742,  743,  751,  752,  753,  754
 1389, 1392, 1393, 1394, 1492, 1493, 1496, 1497, 1498, 1499, 1500, 1501, 2333, 2334, 2335, 2336
 3341, 3342, 3495, 3496, 3497, 3498, 3499, 3500, 3501, 3502, 3503, 3504, 4887, 4888, 4889, 4890
*Elset, elset=Set-57, generate
 2535,  2552,     1
*Nset, nset=Set-58
  113,  115,  175,  177,  253,  254,  284,  285,  753,  754, 1077, 1078, 1086, 1087, 1088, 1089
 1496, 1499, 1500, 1501, 1675, 1676, 1679, 1680, 1681, 1682, 1683, 1684, 2853, 2854, 2855, 2856
 3501, 3502, 3831, 3832, 3833, 3834, 3835, 3836, 3837, 3838, 3839, 3840, 5071, 5072, 5073, 5074
*Elset, elset=Set-58, generate
 3251,  3268,     1
*Nset, nset=Set-59
  109,  113,  173,  175,  251,  253,  283,  284,  744,  745, 1068, 1069, 1077, 1078, 1079, 1080
 1491, 1494, 1495, 1496, 1670, 1671, 1674, 1675, 1676, 1677, 1678, 1679, 2841, 2842, 2843, 2844
 3493, 3494, 3823, 3824, 3825, 3826, 3827, 3828, 3829, 3830, 3831, 3832, 5067, 5068, 5069, 5070
*Elset, elset=Set-59, generate
 3233,  3250,     1
*Nset, nset=Set-60
   64,   67,  109,  113,  229,  230,  251,  253,  553,  554,  728,  729,  742,  743,  744,  745
 1384, 1387, 1388, 1389, 1484, 1485, 1491, 1492, 1493, 1494, 1495, 1496, 2321, 2322, 2323, 2324
 3333, 3334, 3485, 3486, 3489, 3490, 3491, 3492, 3493, 3494, 3495, 3496, 4883, 4884, 4885, 4886
*Elset, elset=Set-60, generate
 2517,  2534,     1
*Nset, nset=Set-61
   26,   29,   64,   67,  210,  211,  229,  230,  400,  401,  539,  540,  551,  552,  553,  554
 1299, 1300, 1301, 1304, 1379, 1380, 1384, 1385, 1386, 1387, 1388, 1389, 2085, 2086, 2087, 2088
 3213, 3214, 3325, 3326, 3329, 3330, 3331, 3332, 3333, 3334, 3335, 3336, 4807, 4808, 4809, 4810
*Elset, elset=Set-61, generate
 2175,  2192,     1
*Nset, nset=Set-62
   14,   18,   26,   29,  204,  206,  210,  211,  360,  361,  388,  389,  400,  401,  402,  403
 1274, 1278, 1279, 1283, 1294, 1295, 1299, 1300, 1301, 1302, 1303, 1304, 1907, 1908, 1909, 1910
 3183, 3184, 3203, 3204, 3207, 3208, 3209, 3210, 3211, 3212, 3213, 3214, 4751, 4752, 4753, 4754
*Elset, elset=Set-62, generate
 1923,  1940,     1
*Nset, nset=Set-63
   13,   14,   17,   18,  203,  204,  205,  206,  346,  347,  358,  359,  360,  361,  362,  363
 1270, 1271, 1274, 1275, 1276, 1277, 1278, 1279, 1280, 1281, 1282, 1283, 1865, 1866, 1867, 1868
 3175, 3176, 3177, 3178, 3179, 3180, 3181, 3182, 3183, 3184, 3185, 3186, 4739, 4740, 4741, 4742
*Elset, elset=Set-63, generate
 1869,  1886,     1
*Nset, nset=Set-64
   13,   17,   51,   53,  203,  205,  222,  223,  362,  363,  487,  488,  496,  497,  498,  499
 1275, 1280, 1281, 1282, 1349, 1350, 1353, 1354, 1355, 1356, 1357, 1358, 2021, 2022, 2023, 2024
 3181, 3182, 3283, 3284, 3285, 3286, 3287, 3288, 3289, 3290, 3291, 3292, 4787, 4788, 4789, 4790
*Elset, elset=Set-64, generate
 2085,  2102,     1
*Nset, nset=Set-65
   51,   53,   93,   95,  222,  223,  243,  244,  498,  499,  660,  661,  669,  670,  671,  672
 1353, 1356, 1357, 1358, 1446, 1447, 1450, 1451, 1452, 1453, 1454, 1455, 2233, 2234, 2235, 2236
 3289, 3290, 3427, 3428, 3429, 3430, 3431, 3432, 3433, 3434, 3435, 3436, 4855, 4856, 4857, 4858
*Elset, elset=Set-65, generate
 2391,  2408,     1
*Nset, nset=Set-66
   93,   95,  147,  149,  243,  244,  270,  271,  671,  672,  919,  920,  928,  929,  930,  931
 1450, 1453, 1454, 1455, 1589, 1590, 1593, 1594, 1595, 1596, 1597, 1598, 2597, 2598, 2599, 2600
 3433, 3434, 3667, 3668, 3669, 3670, 3671, 3672, 3673, 3674, 3675, 3676, 4979, 4980, 4981, 4982
*Elset, elset=Set-66, generate
 2895,  2912,     1
*Nset, nset=Set-67
   95,   97,  149,  151,  244,  245,  271,  272,  678,  679,  928,  929,  937,  938,  939,  940
 1455, 1456, 1457, 1460, 1594, 1595, 1598, 1599, 1600, 1601, 1602, 1603, 2609, 2610, 2611, 2612
 3443, 3444, 3675, 3676, 3677, 3678, 3679, 3680, 3681, 3682, 3683, 3684, 4983, 4984, 4985, 4986
*Elset, elset=Set-67, generate
 2913,  2930,     1
*Nset, nset=Set-68
   53,   55,   95,   97,  223,  224,  244,  245,  507,  508,  669,  670,  678,  679,  680,  681
 1358, 1361, 1362, 1363, 1451, 1452, 1455, 1456, 1457, 1458, 1459, 1460, 2245, 2246, 2247, 2248
 3297, 3298, 3435, 3436, 3437, 3438, 3439, 3440, 3441, 3442, 3443, 3444, 4859, 4860, 4861, 4862
*Elset, elset=Set-68, generate
 2409,  2426,     1
*Nset, nset=Set-69
   17,   22,   53,   55,  205,  208,  223,  224,  374,  375,  496,  497,  505,  506,  507,  508
 1282, 1286, 1287, 1290, 1354, 1355, 1358, 1359, 1360, 1361, 1362, 1363, 2033, 2034, 2035, 2036
 3195, 3196, 3291, 3292, 3293, 3294, 3295, 3296, 3297, 3298, 3299, 3300, 4791, 4792, 4793, 4794
*Elset, elset=Set-69, generate
 2103,  2120,     1
*Nset, nset=Set-70
   17,   18,   21,   22,  205,  206,  207,  208,  358,  359,  372,  373,  374,  375,  376,  377
 1276, 1277, 1282, 1283, 1284, 1285, 1286, 1287, 1288, 1289, 1290, 1291, 1879, 1880, 1881, 1882
 3185, 3186, 3187, 3188, 3189, 3190, 3191, 3192, 3193, 3194, 3195, 3196, 4743, 4744, 4745, 4746
*Elset, elset=Set-70, generate
 1887,  1904,     1
*Nset, nset=Set-71
   18,   21,   25,   26,  206,  207,  209,  210,  372,  373,  386,  387,  388,  389,  390,  391
 1283, 1284, 1285, 1291, 1292, 1293, 1294, 1295, 1296, 1297, 1298, 1299, 1893, 1894, 1895, 1896
 3193, 3194, 3197, 3198, 3199, 3200, 3201, 3202, 3203, 3204, 3205, 3206, 4747, 4748, 4749, 4750
*Elset, elset=Set-71, generate
 1905,  1922,     1
*Nset, nset=Set-72
   25,   26,   63,   64,  209,  210,  228,  229,  386,  387,  537,  538,  539,  540,  541,  542
 1292, 1293, 1298, 1299, 1377, 1378, 1379, 1380, 1381, 1382, 1383, 1384, 2071, 2072, 2073, 2074
 3205, 3206, 3319, 3320, 3321, 3322, 3323, 3324, 3325, 3326, 3327, 3328, 4803, 4804, 4805, 4806
*Elset, elset=Set-72, generate
 2157,  2174,     1
*Nset, nset=Set-73
   63,   64,  109,  110,  228,  229,  251,  252,  537,  538,  728,  729,  730,  731,  732,  733
 1377, 1378, 1383, 1384, 1484, 1485, 1486, 1487, 1488, 1489, 1490, 1491, 2307, 2308, 2309, 2310
 3327, 3328, 3479, 3480, 3481, 3482, 3483, 3484, 3485, 3486, 3487, 3488, 4879, 4880, 4881, 4882
*Elset, elset=Set-73, generate
 2499,  2516,     1
*Nset, nset=Set-74
  109,  110,  171,  173,  251,  252,  282,  283,  732,  733, 1059, 1060, 1068, 1069, 1070, 1071
 1488, 1489, 1490, 1491, 1665, 1666, 1669, 1670, 1671, 1672, 1673, 1674, 2829, 2830, 2831, 2832
 3483, 3484, 3815, 3816, 3817, 3818, 3819, 3820, 3821, 3822, 3823, 3824, 5063, 5064, 5065, 5066
*Elset, elset=Set-74, generate
 3215,  3232,     1
*Nset, nset=Set-75
   63,  107,  110,  169,  171,  228,  250,  252,  281,  282,  721,  722,  730,  731, 1045, 1046
 1047, 1048, 1049, 1059, 1060, 1061, 1062, 1383, 1481, 1482, 1483, 1486, 1487, 1490, 1656, 1657
 1658, 1659, 1660, 1661, 1665, 1666, 1667, 1668, 1669, 2805, 2806, 2807, 2808, 2809, 2810, 2811
 2812, 2813, 2814, 3475, 3476, 3487, 3488, 3789, 3790, 3791, 3792, 3793, 3803, 3804, 3805, 3806
 3807, 3808, 3809, 3810, 3811, 3812, 3813, 3814, 3815, 3816, 5053, 5054, 5055, 5056, 5057, 5058
 5059, 5060, 5061, 5062
*Elset, elset=Set-75, generate
 3179,  3214,     1
*Nset, nset=Set-76
   25,   61,   63,  107,  209,  227,  228,  250,  528,  529,  541,  542,  719,  720,  721,  722
 1298, 1372, 1373, 1376, 1381, 1382, 1383, 1479, 1480, 1481, 1482, 1483, 2295, 2296, 2297, 2298
 3317, 3318, 3323, 3324, 3471, 3472, 3473, 3474, 3475, 3476, 3477, 3478, 4875, 4876, 4877, 4878
*Elset, elset=Set-76, generate
 2481,  2498,     1
*Nset, nset=Set-77
   21,   25,   58,   61,  207,  209,  226,  227,  390,  391,  516,  517,  528,  529,  530,  531
 1291, 1296, 1297, 1298, 1366, 1367, 1371, 1372, 1373, 1374, 1375, 1376, 2059, 2060, 2061, 2062
 3201, 3202, 3307, 3308, 3311, 3312, 3313, 3314, 3315, 3316, 3317, 3318, 4799, 4800, 4801, 4802
*Elset, elset=Set-77, generate
 2139,  2156,     1
*Nset, nset=Set-78
   21,   22,   57,   58,  207,  208,  225,  226,  376,  377,  514,  515,  516,  517,  518,  519
 1288, 1289, 1290, 1291, 1364, 1365, 1366, 1367, 1368, 1369, 1370, 1371, 2045, 2046, 2047, 2048
 3191, 3192, 3301, 3302, 3303, 3304, 3305, 3306, 3307, 3308, 3309, 3310, 4795, 4796, 4797, 4798
*Elset, elset=Set-78, generate
 2121,  2138,     1
*Nset, nset=Set-79
   22,   55,   57,   99,  208,  224,  225,  246,  505,  506,  518,  519,  687,  688,  689,  690
 1290, 1359, 1360, 1363, 1368, 1369, 1370, 1461, 1462, 1463, 1464, 1465, 2257, 2258, 2259, 2260
 3299, 3300, 3305, 3306, 3445, 3446, 3447, 3448, 3449, 3450, 3451, 3452, 4863, 4864, 4865, 4866
*Elset, elset=Set-79, generate
 2427,  2444,     1
*Nset, nset=Set-80
   55,   97,   99,  151,  153,  224,  245,  246,  272,  273,  680,  681,  687,  688,  937,  938
  946,  947,  948,  949,  950,  951,  952, 1363, 1458, 1459, 1460, 1461, 1462, 1465, 1599, 1600
 1603, 1604, 1605, 1606, 1607, 1608, 1609, 1610, 1611, 2621, 2622, 2623, 2624, 2625, 2626, 2627
 2628, 2629, 2630, 3441, 3442, 3451, 3452, 3683, 3684, 3685, 3686, 3687, 3688, 3689, 3690, 3691
 3692, 3693, 3694, 3695, 3696, 3697, 3698, 3699, 3700, 3701, 4987, 4988, 4989, 4990, 4991, 4992
 4993, 4994, 4995, 4996
*Elset, elset=Set-80, generate
 2931,  2966,     1
*Nset, nset=Set-81
   99,  153,  155,  246,  273,  274,  946,  947,  948,  949,  950,  961,  962,  963,  964,  965
  966, 1465, 1604, 1605, 1606, 1607, 1608, 1611, 1612, 1613, 1614, 1615, 1616, 1617, 1618, 2648
 2649, 2650, 2651, 2652, 2653, 2654, 2655, 2656, 3697, 3698, 3699, 3700, 3701, 3702, 3703, 3704
 3705, 3706, 3707, 3708, 3709, 3710, 3711, 3712, 3713, 3714, 3715, 3716, 4997, 4998, 4999, 5000
 5001, 5002, 5003, 5004, 5005
*Elset, elset=Set-81, generate
 2967,  2996,     1
*Nset, nset=Set-82
   57,   99,  102,  155,  157,  225,  246,  248,  274,  275,  689,  690,  698,  699,  964,  965
  966,  974,  975,  976,  977, 1370, 1463, 1464, 1465, 1468, 1469, 1472, 1612, 1613, 1614, 1615
 1619, 1620, 1621, 1622, 1623, 2672, 2673, 2674, 2675, 2676, 3449, 3450, 3461, 3462, 3705, 3706
 3707, 3717, 3718, 3719, 3720, 3721, 3722, 3723, 3724, 3725, 5006, 5007, 5008, 5009, 5010
*Elset, elset=Set-82, generate
 2997,  3020,     1
*Nset, nset=Set-83
   57,   58,  101,  102,  225,  226,  247,  248,  514,  515,  696,  697,  698,  699,  700,  701
 1364, 1365, 1370, 1371, 1466, 1467, 1468, 1469, 1470, 1471, 1472, 1473, 2269, 2270, 2271, 2272
 3309, 3310, 3453, 3454, 3455, 3456, 3457, 3458, 3459, 3460, 3461, 3462, 4867, 4868, 4869, 4870
*Elset, elset=Set-83, generate
 2445,  2462,     1
*Nset, nset=Set-84
   58,   61,  101,  105,  226,  227,  247,  249,  530,  531,  696,  697,  710,  711,  712,  713
 1371, 1374, 1375, 1376, 1466, 1467, 1473, 1474, 1475, 1476, 1477, 1478, 2283, 2284, 2285, 2286
 3315, 3316, 3459, 3460, 3463, 3464, 3465, 3466, 3467, 3468, 3469, 3470, 4871, 4872, 4873, 4874
*Elset, elset=Set-84, generate
 2463,  2480,     1
*Nset, nset=Set-85
   61,  105,  107,  165,  167,  227,  249,  250,  279,  280,  712,  713,  719,  720, 1024, 1025
 1026, 1033, 1034, 1035, 1036, 1376, 1476, 1477, 1478, 1479, 1480, 1483, 1645, 1646, 1647, 1648
 1651, 1652, 1653, 1654, 1655, 2765, 2766, 2767, 2768, 2769, 3467, 3468, 3477, 3478, 3768, 3769
 3770, 3777, 3778, 3779, 3780, 3781, 3782, 3783, 3784, 3785, 5039, 5040, 5041, 5042, 5043
*Elset, elset=Set-85, generate
 3125,  3148,     1
*Nset, nset=Set-86
  107,  167,  169,  250,  280,  281, 1034, 1035, 1036, 1042, 1043, 1044, 1045, 1046, 1047, 1048
 1049, 1483, 1651, 1652, 1653, 1654, 1656, 1657, 1658, 1659, 1660, 1661, 1662, 1663, 1664, 2779
 2780, 2781, 2782, 2783, 2784, 2785, 2786, 2787, 3778, 3779, 3780, 3786, 3787, 3788, 3789, 3790
 3791, 3792, 3793, 3794, 3795, 3796, 3797, 3798, 3799, 3800, 3801, 3802, 5044, 5045, 5046, 5047
 5048, 5049, 5050, 5051, 5052
*Elset, elset=Set-86, generate
 3149,  3178,     1
*Nset, nset=Set-87
  105,  163,  165,  249,  278,  279, 1009, 1010, 1011, 1012, 1022, 1023, 1024, 1025, 1026, 1478
 1638, 1639, 1640, 1641, 1644, 1645, 1646, 1647, 1648, 1649, 1650, 2748, 2749, 2750, 2751, 2752
 2753, 3762, 3763, 3764, 3765, 3766, 3767, 3768, 3769, 3770, 3771, 3772, 3773, 3774, 3775, 3776
 5033, 5034, 5035, 5036, 5037, 5038
*Elset, elset=Set-87, generate
 3103,  3124,     1
*Nset, nset=Set-88
  101,  105,  161,  163,  247,  249,  277,  278,  710,  711,  996,  997,  998,  999, 1009, 1010
 1011, 1012, 1013, 1014, 1473, 1474, 1475, 1478, 1631, 1632, 1633, 1634, 1637, 1638, 1639, 1640
 1641, 1642, 1643, 1644, 2726, 2727, 2728, 2729, 2730, 2731, 2732, 2733, 3469, 3470, 3748, 3749
 3750, 3751, 3752, 3753, 3754, 3755, 3756, 3757, 3758, 3759, 3760, 3761, 3762, 3763, 3764, 3765
 5025, 5026, 5027, 5028, 5029, 5030, 5031, 5032
*Elset, elset=Set-88, generate
 3073,  3102,     1
*Nset, nset=Set-89
  101,  102,  159,  161,  247,  248,  276,  277,  700,  701,  985,  986,  987,  988,  996,  997
  998,  999, 1000, 1001, 1470, 1471, 1472, 1473, 1624, 1625, 1626, 1627, 1628, 1631, 1632, 1633
 1634, 1635, 1636, 1637, 2704, 2705, 2706, 2707, 2708, 2709, 2710, 2711, 3457, 3458, 3728, 3729
 3730, 3731, 3738, 3739, 3740, 3741, 3742, 3743, 3744, 3745, 3746, 3747, 3748, 3749, 3750, 3751
 5017, 5018, 5019, 5020, 5021, 5022, 5023, 5024
*Elset, elset=Set-89, generate
 3043,  3072,     1
*Nset, nset=Set-90
  102,  157,  159,  248,  275,  276,  975,  976,  977,  983,  984,  985,  986,  987,  988, 1472
 1619, 1620, 1621, 1622, 1624, 1625, 1626, 1627, 1628, 1629, 1630, 2686, 2687, 2688, 2689, 2690
 2691, 3718, 3719, 3720, 3726, 3727, 3728, 3729, 3730, 3731, 3732, 3733, 3734, 3735, 3736, 3737
 5011, 5012, 5013, 5014, 5015, 5016
*Elset, elset=Set-90, generate
 3021,  3042,     1
*Nset, nset=Set-91
  191,  194,  195,  196,  295,  298,  301,  302,  303,  304, 1220, 1223, 1224, 1225, 1226, 1227
 1228, 1229, 1230, 1231, 1232, 1233, 1236, 1237, 1238, 1239, 1240, 1241, 1242, 1243, 1244, 1245
 1246, 1247, 1766, 1776, 1777, 1785, 1786, 1787, 1788, 1789, 1790, 1791, 1792, 1793, 1794, 1795
 1796, 1797, 1798, 1799, 1800, 3132, 3133, 3134, 3135, 3136, 3137, 3138, 3139, 3140, 3141, 3142
 4112, 4113, 4114, 4115, 4116, 4117, 4118, 4119, 4120, 4121, 4122, 4123, 4124, 4125, 4126, 4127
 4128, 4129, 4130, 4131, 4132, 4133, 4134, 4135, 4136, 4137, 4138, 4139, 4140, 4141, 4142, 4143
 4144, 4145, 4146, 4147, 4148, 4149, 4150, 4151, 4152, 4153, 4154, 4155, 4156, 4157, 4158, 4159
 4160, 4161, 4162, 4163, 4164, 4165, 4166, 4167, 4168, 4169, 4170, 4171, 4172, 4173, 4174, 4175
 4176, 4177, 4178, 4179, 4180, 4181, 4182, 4183, 4184, 4185, 4186, 4187, 5225, 5226, 5227, 5228
 5229, 5230, 5231, 5232, 5233, 5234, 5235, 5236, 5237, 5238, 5239, 5240, 5241, 5242, 5243, 5244
 5245, 5246, 5247, 5248, 5249, 5250, 5251, 5252, 5253, 5254, 5255, 5256, 5257, 5258
*Elset, elset=Set-91, generate
 3763,  3852,     1
*Nset, nset=Set-92
  191,  192,  193,  194,  295,  296,  297,  298,  299,  300, 1193, 1194, 1195, 1196, 1197, 1198
 1199, 1200, 1201, 1202, 1203, 1208, 1209, 1210, 1211, 1212, 1213, 1214, 1215, 1216, 1217, 1218
 1219, 1220, 1766, 1767, 1768, 1769, 1770, 1771, 1772, 1773, 1774, 1775, 1776, 1777, 1778, 1779
 1780, 1781, 1782, 1783, 1784, 3073, 3074, 3075, 3076, 3077, 3078, 3079, 3080, 3081, 3082, 3083
 4029, 4030, 4031, 4032, 4033, 4034, 4035, 4036, 4037, 4038, 4039, 4040, 4041, 4042, 4043, 4044
 4045, 4046, 4047, 4048, 4049, 4050, 4051, 4052, 4053, 4054, 4055, 4056, 4057, 4058, 4059, 4060
 4061, 4062, 4063, 4064, 4065, 4066, 4067, 4068, 4069, 4070, 4071, 4072, 4073, 4074, 4075, 4076
 4077, 4078, 4079, 4080, 4081, 4082, 4083, 4084, 4085, 4086, 4087, 4088, 4089, 4090, 4091, 4092
 4093, 4094, 4095, 4096, 4097, 4098, 4099, 4100, 4101, 4102, 4103, 4104, 4105, 4106, 4107, 4108
 4109, 4110, 4111, 4112, 5187, 5188, 5189, 5190, 5191, 5192, 5193, 5194, 5195, 5196, 5197, 5198
 5199, 5200, 5201, 5202, 5203, 5204, 5205, 5206, 5207, 5208, 5209, 5210, 5211, 5212, 5213, 5214
 5215, 5216, 5217, 5218, 5219, 5220, 5221, 5222, 5223, 5224
*Elset, elset=Set-92, generate
 3665,  3762,     1
*Nset, nset=Set-93
  127,  128,  129,  130,  189,  190,  191,  192,  193,  194,  805,  806,  811,  812,  813,  814
 1168, 1169, 1170, 1171, 1172, 1173, 1174, 1175, 1178, 1179, 1180, 1181, 1182, 1183, 1184, 1185
 1188, 1189, 1190, 1191, 1192, 1193, 1194, 1195, 1196, 1197, 1198, 1199, 1200, 1201, 1202, 1203
 1204, 1205, 1206, 1207, 1208, 1209, 1210, 1211, 1212, 1213, 1214, 1215, 1216, 1217, 1218, 1219
 1220, 2403, 2404, 3021, 3022, 3023, 3024, 3025, 3026, 3027, 3028, 3029, 3030, 3031, 3032, 3033
 3034, 3035, 3036, 3037, 3038, 3039, 3040, 3041, 3042, 3043, 3044, 3045, 3046, 3047, 3048, 3049
 3050, 3051, 3052, 3053, 3054, 3055, 3056, 3057, 3058, 3059, 3060, 3061, 3062, 3063, 3064, 3065
 3066, 3067, 3068, 3069, 3070, 3071, 3072, 3073, 3074, 3075, 3076, 3077, 3078, 3079, 3080, 3081
 3082, 3083, 3084, 3085, 3086, 3087, 4683, 4684, 4685, 4686, 4687, 4688, 4689, 4690, 4691, 4692
 4693, 4694, 4695, 4696, 4697, 4698, 4699, 4700, 4701, 4702, 4703, 4704
*Elset, elset=Set-93, generate
 1671,  1742,     1
*Nset, nset=Set-94
  127,  130,  131,  132,  134,  135,  191,  194,  195,  196,  814,  817,  818,  821,  822,  823
  832,  833,  834,  835,  836,  837,  838,  839,  850,  851,  852,  853,  854,  855,  856,  857
  860, 1189, 1190, 1204, 1205, 1220, 1221, 1222, 1223, 1224, 1225, 1226, 1227, 1228, 1229, 1230
 1231, 1232, 1233, 1234, 1235, 1236, 1237, 1238, 1239, 1240, 1241, 1242, 1243, 1244, 1245, 1246
 1247, 2417, 2418, 2463, 2464, 2465, 2466, 2467, 2468, 2469, 2470, 3084, 3085, 3088, 3089, 3090
 3091, 3092, 3093, 3094, 3095, 3096, 3097, 3098, 3099, 3100, 3101, 3102, 3103, 3104, 3105, 3106
 3107, 3108, 3109, 3110, 3111, 3112, 3113, 3114, 3115, 3116, 3117, 3118, 3119, 3120, 3121, 3122
 3123, 3124, 3125, 3126, 3127, 3128, 3129, 3130, 3131, 3132, 3133, 3134, 3135, 3136, 3137, 3138
 3139, 3140, 3141, 3142, 3143, 3144, 4705, 4706, 4707, 4708, 4709, 4710, 4711, 4712, 4713, 4714
 4715, 4716, 4717, 4718, 4719, 4720, 4721, 4722, 4723, 4724, 4725, 4726
*Elset, elset=Set-94, generate
 1743,  1814,     1
*Nset, nset=Set-95
   80,   82,  131,  132,  133,  134,  135,  136,  617,  815,  816,  819,  820,  823,  824,  825
  826,  827,  828,  829,  830,  831,  832,  833,  834,  835,  836,  837,  838,  839,  840,  841
  842,  843,  844,  845,  846,  847,  848,  849,  850,  851,  852,  853,  854,  855,  856,  857
  858,  859,  860,  861, 2419, 2420, 2421, 2422, 2423, 2424, 2425, 2426, 2427, 2428, 2429, 2430
 2431, 2432, 2433, 2434, 2435, 2436, 2437, 2438, 2439, 2440, 2441, 2442, 2443, 2444, 2445, 2446
 2447, 2448, 2449, 2450, 2451, 2452, 2453, 2454, 2455, 2456, 2457, 2458, 2459, 2460, 2461, 2462
 2463, 2464, 2465, 2466, 2467, 2468, 2469, 2470, 4463, 4464, 4465, 4466, 4467, 4468, 4469, 4470
 4471, 4472, 4473, 4474, 4475, 4476, 4477, 4478
*Elset, elset=Set-95, generate
 847,  900,    1
*Nset, nset=Set-96
   79,   80,   81,   82,  127,  130,  131,  132,  607,  608,  613,  614,  617,  618,  801,  802
  807,  808,  814,  815,  816,  817,  818,  819,  820,  821,  822,  823, 2169, 2170, 2405, 2406
 2409, 2410, 2411, 2412, 2413, 2414, 2415, 2416, 2417, 2418, 2419, 2420, 4459, 4460, 4461, 4462
*Elset, elset=Set-96, generate
 829,  846,    1
*Nset, nset=Set-97
   79,   81,  125,  126,  127,  128,  129,  130,  618,  792,  793,  796,  797,  800,  801,  802
  803,  804,  805,  806,  807,  808,  809,  810,  811,  812,  813,  814, 2393, 2394, 2395, 2396
 2397, 2398, 2399, 2400, 2401, 2402, 2403, 2404, 2405, 2406, 2407, 2408, 4455, 4456, 4457, 4458
*Elset, elset=Set-97, generate
 811,  828,    1
*Nset, nset=Set-98
  125,  126,  128,  129,  187,  188,  189,  190,  800,  803,  804,  809,  810,  813, 1147, 1148
 1149, 1150, 1151, 1152, 1153, 1154, 1157, 1158, 1159, 1160, 1161, 1162, 1163, 1164, 1167, 1168
 1169, 1170, 1171, 1172, 1173, 1174, 1175, 1176, 1177, 1178, 1179, 1180, 1181, 1182, 1183, 1184
 1185, 1186, 1187, 1188, 2407, 2408, 2979, 2980, 2981, 2982, 2983, 2984, 2985, 2986, 2987, 2988
 2989, 2990, 2991, 2992, 2993, 2994, 2995, 2996, 2997, 2998, 2999, 3000, 3001, 3002, 3003, 3004
 3005, 3006, 3007, 3008, 3009, 3010, 3011, 3012, 3013, 3014, 3015, 3016, 3017, 3018, 3019, 3020
 3021, 3022, 3023, 3024, 3025, 3026, 3027, 3028, 4667, 4668, 4669, 4670, 4671, 4672, 4673, 4674
 4675, 4676, 4677, 4678, 4679, 4680, 4681, 4682
*Elset, elset=Set-98, generate
 1617,  1670,     1
*Nset, nset=Set-99
   77,   78,  123,  124,  125,  126,  185,  186,  187,  188,  604,  785,  786,  789,  790,  791
  794,  795,  798,  799,  800, 1132, 1133, 1134, 1135, 1136, 1139, 1140, 1141, 1142, 1143, 1146
 1147, 1148, 1149, 1150, 1151, 1152, 1153, 1154, 1155, 1156, 1157, 1158, 1159, 1160, 1161, 1162
 1163, 1164, 1165, 1166, 1167, 2379, 2380, 2391, 2392, 2940, 2941, 2942, 2943, 2944, 2945, 2946
 2947, 2948, 2949, 2950, 2951, 2952, 2953, 2954, 2955, 2956, 2957, 2958, 2959, 2960, 2961, 2962
 2963, 2964, 2965, 2966, 2967, 2968, 2969, 2970, 2971, 2972, 2973, 2974, 2975, 2976, 2977, 2978
 2979, 2980, 2981, 2982, 2983, 2984, 2985, 2986, 4651, 4652, 4653, 4654, 4655, 4656, 4657, 4658
 4659, 4660, 4661, 4662, 4663, 4664, 4665, 4666
*Elset, elset=Set-99, generate
 1563,  1616,     1
*Nset, nset=Set-100
   40,   43,   77,   78,   79,   81,  125,  126,  452,  596,  597,  600,  601,  604,  605,  606
  611,  612,  618,  792,  793,  794,  795,  796,  797,  798,  799,  800, 2155, 2156, 2167, 2168
 2383, 2384, 2385, 2386, 2387, 2388, 2389, 2390, 2391, 2392, 2393, 2394, 4451, 4452, 4453, 4454
*Elset, elset=Set-100, generate
 793,  810,    1
*Nset, nset=Set-101
   37,   40,   43,   44,   79,   80,   81,   82,  442,  443,  450,  451,  452,  453,  605,  606
  607,  608,  609,  610,  611,  612,  613,  614,  615,  616,  617,  618, 1963, 1964, 2157, 2158
 2159, 2160, 2161, 2162, 2163, 2164, 2165, 2166, 2167, 2168, 2169, 2170, 4379, 4380, 4381, 4382
*Elset, elset=Set-101, generate
 469,  486,    1
*Nset, nset=Set-102
   37,   44,   80,   82,   84,   85,  133,  136,  137,  138,  453,  609,  610,  615,  616,  617
  621,  622,  627,  628,  631,  824,  825,  826,  827,  828,  829,  830,  831,  842,  843,  844
  845,  846,  847,  848,  849,  861,  862,  863,  864,  865,  866,  867,  868,  869,  870,  871
  872,  873,  874,  875,  876, 2165, 2166, 2183, 2184, 2455, 2456, 2457, 2458, 2459, 2460, 2461
 2462, 2471, 2472, 2473, 2474, 2475, 2476, 2477, 2478, 2479, 2480, 2481, 2482, 2483, 2484, 2485
 2486, 2487, 2488, 2489, 2490, 2491, 2492, 2493, 2494, 2495, 2496, 2497, 2498, 2499, 2500, 2501
 2502, 2503, 2504, 2505, 2506, 2507, 2508, 2509, 4479, 4480, 4481, 4482, 4483, 4484, 4485, 4486
 4487, 4488, 4489, 4490, 4491, 4492, 4493, 4494
*Elset, elset=Set-102, generate
 901,  954,    1
*Nset, nset=Set-103
   83,   84,   85,   86,  137,  138,  139,  140,  623,  624,  629,  630,  631,  632,  862,  863
  864,  865,  866,  869,  870,  871,  872,  873,  876,  877,  878,  879,  880,  881,  882,  883
  884,  885,  886,  887,  888,  889,  890,  891, 2179, 2180, 2505, 2506, 2507, 2508, 2509, 2510
 2511, 2512, 2513, 2514, 2515, 2516, 2517, 2518, 2519, 2520, 2521, 2522, 2523, 2524, 2525, 2526
 2527, 2528, 2529, 2530, 2531, 2532, 2533, 2534, 2535, 2536, 4495, 4496, 4497, 4498, 4499, 4500
 4501, 4502, 4503, 4504
*Elset, elset=Set-103, generate
 955,  990,    1
*Nset, nset=Set-104
   37,   38,   41,   44,   83,   84,   85,   86,  436,  437,  444,  445,  453,  455,  619,  620
  621,  622,  623,  624,  625,  626,  627,  628,  629,  630,  631,  632, 1967, 1968, 2171, 2172
 2173, 2174, 2175, 2176, 2177, 2178, 2179, 2180, 2181, 2182, 2183, 2184, 4383, 4384, 4385, 4386
*Elset, elset=Set-104, generate
 487,  504,    1
*Nset, nset=Set-105
   37,   38,   39,   40,   41,   42,   43,   44,  436,  437,  438,  439,  440,  441,  442,  443
  444,  445,  446,  447,  448,  449,  450,  451,  452,  453,  454,  455, 1955, 1956, 1957, 1958
 1959, 1960, 1961, 1962, 1963, 1964, 1965, 1966, 1967, 1968, 1969, 1970, 4315, 4316, 4317, 4318
*Elset, elset=Set-105, generate
 181,  198,    1
*Nset, nset=Set-106
   39,   40,   42,   43,   75,   76,   77,   78,  440,  441,  448,  449,  452,  454,  587,  588
  591,  592,  595,  596,  597,  598,  599,  600,  601,  602,  603,  604, 1969, 1970, 2143, 2144
 2145, 2146, 2147, 2148, 2149, 2150, 2151, 2152, 2153, 2154, 2155, 2156, 4375, 4376, 4377, 4378
*Elset, elset=Set-106, generate
 451,  468,    1
*Nset, nset=Set-107
   75,   76,   77,   78,  121,  122,  123,  124,  595,  598,  599,  602,  603,  604,  774,  775
  778,  779,  782,  783,  784,  785,  786,  787,  788,  789,  790,  791, 2153, 2154, 2369, 2370
 2371, 2372, 2373, 2374, 2375, 2376, 2377, 2378, 2379, 2380, 2381, 2382, 4447, 4448, 4449, 4450
*Elset, elset=Set-107, generate
 775,  792,    1
*Nset, nset=Set-108
  121,  122,  123,  124,  183,  184,  185,  186,  782,  783,  784,  787,  788,  791, 1117, 1118
 1119, 1120, 1121, 1124, 1125, 1126, 1127, 1128, 1131, 1132, 1133, 1134, 1135, 1136, 1137, 1138
 1139, 1140, 1141, 1142, 1143, 1144, 1145, 1146, 2381, 2382, 2913, 2914, 2915, 2916, 2917, 2918
 2919, 2920, 2921, 2922, 2923, 2924, 2925, 2926, 2927, 2928, 2929, 2930, 2931, 2932, 2933, 2934
 2935, 2936, 2937, 2938, 2939, 2940, 2941, 2942, 2943, 2944, 4641, 4642, 4643, 4644, 4645, 4646
 4647, 4648, 4649, 4650
*Elset, elset=Set-108, generate
 1527,  1562,     1
*Nset, nset=Set-109
   73,   74,  118,  120,  121,  122,  181,  182,  183,  184,  586,  764,  765,  770,  771,  772
  776,  777,  780,  781,  782, 1108, 1109, 1112, 1113, 1116, 1117, 1118, 1119, 1120, 1121, 1122
 1123, 1124, 1125, 1126, 1127, 1128, 1129, 1130, 1131, 2353, 2354, 2367, 2368, 2889, 2890, 2891
 2892, 2893, 2894, 2895, 2896, 2897, 2898, 2899, 2900, 2901, 2902, 2903, 2904, 2905, 2906, 2907
 2908, 2909, 2910, 2911, 2912, 2913, 2914, 2915, 2916, 2917, 4631, 4632, 4633, 4634, 4635, 4636
 4637, 4638, 4639, 4640
*Elset, elset=Set-109, generate
 1491,  1526,     1
*Nset, nset=Set-110
   35,   36,   73,   74,   75,   76,  121,  122,  435,  578,  579,  582,  583,  586,  589,  590
  593,  594,  595,  774,  775,  776,  777,  778,  779,  780,  781,  782, 2131, 2132, 2141, 2142
 2359, 2360, 2361, 2362, 2363, 2364, 2365, 2366, 2367, 2368, 2369, 2370, 4443, 4444, 4445, 4446
*Elset, elset=Set-110, generate
 757,  774,    1
*Nset, nset=Set-111
    4,    7,   35,   36,   39,   42,   75,   76,  326,  427,  428,  431,  432,  435,  454,  458
  459,  462,  463,  587,  588,  589,  590,  591,  592,  593,  594,  595, 1953, 1954, 1979, 1980
 2133, 2134, 2135, 2136, 2137, 2138, 2139, 2140, 2141, 2142, 2143, 2144, 4371, 4372, 4373, 4374
*Elset, elset=Set-111, generate
 433,  450,    1
*Nset, nset=Set-112
    1,    4,    7,    8,   38,   39,   41,   42,  316,  317,  324,  325,  326,  327,  438,  439
  446,  447,  454,  455,  456,  457,  458,  459,  460,  461,  462,  463, 1829, 1830, 1965, 1966
 1971, 1972, 1973, 1974, 1975, 1976, 1977, 1978, 1979, 1980, 1981, 1982, 4319, 4320, 4321, 4322
*Elset, elset=Set-112, generate
 199,  216,    1
*Nset, nset=Set-113
    1,    8,   38,   41,   45,   48,   83,   86,  327,  455,  456,  457,  460,  461,  468,  469
  474,  475,  476,  619,  620,  625,  626,  632,  633,  634,  635,  636, 1981, 1982, 1991, 1992
 2181, 2182, 2185, 2186, 2187, 2188, 2189, 2190, 2191, 2192, 2193, 2194, 4387, 4388, 4389, 4390
*Elset, elset=Set-113, generate
 505,  522,    1
*Nset, nset=Set-114
   45,   48,   83,   86,   88,   89,  139,  140,  141,  142,  476,  632,  633,  634,  635,  636
  639,  640,  645,  646,  649,  877,  878,  879,  880,  881,  884,  885,  886,  887,  888,  891
  892,  893,  894,  895,  896,  897,  898,  899,  900, 2193, 2194, 2207, 2208, 2532, 2533, 2534
 2535, 2536, 2537, 2538, 2539, 2540, 2541, 2542, 2543, 2544, 2545, 2546, 2547, 2548, 2549, 2550
 2551, 2552, 2553, 2554, 2555, 2556, 2557, 2558, 2559, 2560, 4505, 4506, 4507, 4508, 4509, 4510
 4511, 4512, 4513, 4514
*Elset, elset=Set-114, generate
  991,  1026,     1
*Nset, nset=Set-115
   87,   88,   89,   90,  141,  142,  143,  144,  641,  642,  647,  648,  649,  650,  892,  893
  896,  897,  900,  901,  902,  903,  904,  905,  906,  907,  908,  909, 2203, 2204, 2559, 2560
 2561, 2562, 2563, 2564, 2565, 2566, 2567, 2568, 2569, 2570, 2571, 2572, 4515, 4516, 4517, 4518
*Elset, elset=Set-115, generate
 1027,  1044,     1
*Nset, nset=Set-116
   45,   46,   47,   48,   87,   88,   89,   90,  464,  465,  470,  471,  476,  477,  637,  638
  639,  640,  641,  642,  643,  644,  645,  646,  647,  648,  649,  650, 1995, 1996, 2195, 2196
 2197, 2198, 2199, 2200, 2201, 2202, 2203, 2204, 2205, 2206, 2207, 2208, 4391, 4392, 4393, 4394
*Elset, elset=Set-116, generate
 523,  540,    1
*Nset, nset=Set-117
    1,    2,    5,    8,   45,   46,   47,   48,  310,  311,  318,  319,  327,  329,  464,  465
  466,  467,  468,  469,  470,  471,  472,  473,  474,  475,  476,  477, 1833, 1834, 1983, 1984
 1985, 1986, 1987, 1988, 1989, 1990, 1991, 1992, 1993, 1994, 1995, 1996, 4323, 4324, 4325, 4326
*Elset, elset=Set-117, generate
 217,  234,    1
*Nset, nset=Set-118
    1,    2,    3,    4,    5,    6,    7,    8,  310,  311,  312,  313,  314,  315,  316,  317
  318,  319,  320,  321,  322,  323,  324,  325,  326,  327,  328,  329, 1821, 1822, 1823, 1824
 1825, 1826, 1827, 1828, 1829, 1830, 1831, 1832, 1833, 1834, 1835, 1836, 4275, 4276, 4277, 4278
*Elset, elset=Set-118, generate
  1,  18,   1
*Nset, nset=Set-119
    3,    4,    6,    7,   33,   34,   35,   36,  314,  315,  322,  323,  326,  328,  418,  419
  422,  423,  426,  427,  428,  429,  430,  431,  432,  433,  434,  435, 1835, 1836, 1941, 1942
 1943, 1944, 1945, 1946, 1947, 1948, 1949, 1950, 1951, 1952, 1953, 1954, 4311, 4312, 4313, 4314
*Elset, elset=Set-119, generate
 163,  180,    1
*Nset, nset=Set-120
   33,   34,   35,   36,   71,   72,   73,   74,  426,  429,  430,  433,  434,  435,  569,  570
  573,  574,  577,  578,  579,  580,  581,  582,  583,  584,  585,  586, 1951, 1952, 2119, 2120
 2121, 2122, 2123, 2124, 2125, 2126, 2127, 2128, 2129, 2130, 2131, 2132, 4367, 4368, 4369, 4370
*Elset, elset=Set-120, generate
 415,  432,    1
*Nset, nset=Set-121
   71,   72,   73,   74,  117,  118,  119,  120,  577,  580,  581,  584,  585,  586,  760,  761
  762,  763,  764,  765,  766,  767,  768,  769,  770,  771,  772,  773, 2129, 2130, 2345, 2346
 2347, 2348, 2349, 2350, 2351, 2352, 2353, 2354, 2355, 2356, 2357, 2358, 4439, 4440, 4441, 4442
*Elset, elset=Set-121, generate
 739,  756,    1
*Nset, nset=Set-122
  117,  118,  119,  120,  179,  180,  181,  182,  762,  763,  768,  769,  772,  773, 1095, 1096
 1101, 1102, 1107, 1108, 1109, 1110, 1111, 1112, 1113, 1114, 1115, 1116, 2357, 2358, 2877, 2878
 2879, 2880, 2881, 2882, 2883, 2884, 2885, 2886, 2887, 2888, 2889, 2890, 4627, 4628, 4629, 4630
*Elset, elset=Set-122, generate
 1473,  1490,     1
*Nset, nset=Set-123
   87,   90,   91,   92,  143,  144,  145,  146,  650,  653,  654,  657,  658,  659,  901,  902
  905,  906,  909,  910,  911,  912,  913,  914,  915,  916,  917,  918, 2217, 2218, 2571, 2572
 2573, 2574, 2575, 2576, 2577, 2578, 2579, 2580, 2581, 2582, 2583, 2584, 4519, 4520, 4521, 4522
*Elset, elset=Set-123, generate
 1045,  1062,     1
*Nset, nset=Set-124
   46,   47,   49,   50,   87,   90,   91,   92,  477,  480,  481,  484,  485,  486,  637,  638
  643,  644,  650,  651,  652,  653,  654,  655,  656,  657,  658,  659, 2005, 2006, 2205, 2206
 2209, 2210, 2211, 2212, 2213, 2214, 2215, 2216, 2217, 2218, 2219, 2220, 4395, 4396, 4397, 4398
*Elset, elset=Set-124, generate
 541,  558,    1
*Nset, nset=Set-125
    2,    5,    9,   11,   46,   47,   49,   50,  329,  330,  331,  336,  337,  343,  466,  467
  472,  473,  477,  478,  479,  480,  481,  482,  483,  484,  485,  486, 1847, 1848, 1993, 1994
 1997, 1998, 1999, 2000, 2001, 2002, 2003, 2004, 2005, 2006, 2007, 2008, 4327, 4328, 4329, 4330
*Elset, elset=Set-125, generate
 235,  252,    1
*Nset, nset=Set-126
    3,    6,   10,   12,   31,   32,   33,   34,  328,  334,  335,  340,  341,  342,  409,  410
  413,  414,  417,  418,  419,  420,  421,  422,  423,  424,  425,  426, 1849, 1850, 1929, 1930
 1931, 1932, 1933, 1934, 1935, 1936, 1937, 1938, 1939, 1940, 1941, 1942, 4307, 4308, 4309, 4310
*Elset, elset=Set-126, generate
 145,  162,    1
*Nset, nset=Set-127
    2,    3,    5,    6,    9,   10,   11,   12,  312,  313,  320,  321,  328,  329,  330,  331
  332,  333,  334,  335,  336,  337,  338,  339,  340,  341,  342,  343, 1831, 1832, 1837, 1838
 1839, 1840, 1841, 1842, 1843, 1844, 1845, 1846, 1847, 1848, 1849, 1850, 4279, 4280, 4281, 4282
*Elset, elset=Set-127, generate
 19,  36,   1
*Nset, nset=Set-128
   31,   32,   33,   34,   69,   70,   71,   72,  417,  420,  421,  424,  425,  426,  560,  561
  564,  565,  568,  569,  570,  571,  572,  573,  574,  575,  576,  577, 1939, 1940, 2107, 2108
 2109, 2110, 2111, 2112, 2113, 2114, 2115, 2116, 2117, 2118, 2119, 2120, 4363, 4364, 4365, 4366
*Elset, elset=Set-128, generate
 397,  414,    1
*Nset, nset=Set-129
   69,   70,   71,   72,  115,  116,  117,  119,  568,  571,  572,  575,  576,  577,  751,  752
  755,  756,  759,  760,  761,  766,  767,  773, 1097, 1098, 1103, 1104, 2117, 2118, 2343, 2344
 2355, 2356, 2875, 2876, 4017, 4018, 4019, 4020, 4021, 4022, 4023, 4024, 5179, 5180, 5181, 5182
*Elset, elset=Set-129, generate
 3629,  3646,     1
*Nset, nset=Set-130
  115,  116,  117,  119,  177,  178,  179,  180,  759,  773, 1086, 1087, 1090, 1091, 1094, 1095
 1096, 1097, 1098, 1099, 1100, 1101, 1102, 1103, 1104, 1105, 1106, 1107, 2863, 2864, 2865, 2866
 2867, 2868, 2869, 2870, 2871, 2872, 2873, 2874, 2875, 2876, 2877, 2878, 4623, 4624, 4625, 4626
*Elset, elset=Set-130, generate
 1455,  1472,     1
*Nset, nset=Set-131
  113,  114,  115,  116,  175,  176,  177,  178,  750,  753,  754,  757,  758,  759, 1077, 1078
 1081, 1082, 1085, 1086, 1087, 1088, 1089, 1090, 1091, 1092, 1093, 1094, 2341, 2342, 2851, 2852
 2853, 2854, 2855, 2856, 2857, 2858, 2859, 2860, 2861, 2862, 2863, 2864, 4619, 4620, 4621, 4622
*Elset, elset=Set-131, generate
 1437,  1454,     1
*Nset, nset=Set-132
   67,   68,   69,   70,  113,  114,  115,  116,  559,  562,  563,  566,  567,  568,  742,  743
  746,  747,  750,  751,  752,  753,  754,  755,  756,  757,  758,  759, 2105, 2106, 2331, 2332
 2333, 2334, 2335, 2336, 2337, 2338, 2339, 2340, 2341, 2342, 2343, 2344, 4435, 4436, 4437, 4438
*Elset, elset=Set-132, generate
 721,  738,    1
*Nset, nset=Set-133
   29,   30,   31,   32,   67,   68,   69,   70,  408,  411,  412,  415,  416,  417,  551,  552
  555,  556,  559,  560,  561,  562,  563,  564,  565,  566,  567,  568, 1927, 1928, 2095, 2096
 2097, 2098, 2099, 2100, 2101, 2102, 2103, 2104, 2105, 2106, 2107, 2108, 4359, 4360, 4361, 4362
*Elset, elset=Set-133, generate
 379,  396,    1
*Nset, nset=Set-134
   10,   12,   14,   16,   29,   30,   31,   32,  342,  348,  349,  354,  355,  356,  402,  403
  406,  407,  408,  409,  410,  411,  412,  413,  414,  415,  416,  417, 1859, 1860, 1915, 1916
 1919, 1920, 1921, 1922, 1923, 1924, 1925, 1926, 1927, 1928, 1929, 1930, 4303, 4304, 4305, 4306
*Elset, elset=Set-134, generate
 127,  144,    1
*Nset, nset=Set-135
    9,   10,   11,   12,   13,   14,   15,   16,  332,  333,  338,  339,  342,  343,  344,  345
  346,  347,  348,  349,  350,  351,  352,  353,  354,  355,  356,  357, 1845, 1846, 1851, 1852
 1853, 1854, 1855, 1856, 1857, 1858, 1859, 1860, 1861, 1862, 1863, 1864, 4283, 4284, 4285, 4286
*Elset, elset=Set-135, generate
 37,  54,   1
*Nset, nset=Set-136
    9,   11,   13,   15,   49,   50,   51,   52,  343,  344,  345,  350,  351,  357,  478,  479
  482,  483,  486,  487,  488,  489,  490,  491,  492,  493,  494,  495, 1861, 1862, 2007, 2008
 2009, 2010, 2011, 2012, 2013, 2014, 2015, 2016, 2017, 2018, 2019, 2020, 4331, 4332, 4333, 4334
*Elset, elset=Set-136, generate
 253,  270,    1
*Nset, nset=Set-137
   49,   50,   51,   52,   91,   92,   93,   94,  486,  489,  490,  493,  494,  495,  651,  652
  655,  656,  659,  660,  661,  662,  663,  664,  665,  666,  667,  668, 2017, 2018, 2219, 2220
 2221, 2222, 2223, 2224, 2225, 2226, 2227, 2228, 2229, 2230, 2231, 2232, 4399, 4400, 4401, 4402
*Elset, elset=Set-137, generate
 559,  576,    1
*Nset, nset=Set-138
   91,   92,   93,   94,  145,  146,  147,  148,  659,  662,  663,  666,  667,  668,  910,  911
  914,  915,  918,  919,  920,  921,  922,  923,  924,  925,  926,  927, 2229, 2230, 2583, 2584
 2585, 2586, 2587, 2588, 2589, 2590, 2591, 2592, 2593, 2594, 2595, 2596, 4523, 4524, 4525, 4526
*Elset, elset=Set-138, generate
 1063,  1080,     1
*Nset, nset=Set-139
   93,   94,   95,   96,  147,  148,  149,  150,  668,  671,  672,  675,  676,  677,  919,  920
  923,  924,  927,  928,  929,  930,  931,  932,  933,  934,  935,  936, 2241, 2242, 2595, 2596
 2597, 2598, 2599, 2600, 2601, 2602, 2603, 2604, 2605, 2606, 2607, 2608, 4527, 4528, 4529, 4530
*Elset, elset=Set-139, generate
 1081,  1098,     1
*Nset, nset=Set-140
   51,   52,   53,   54,   93,   94,   95,   96,  495,  498,  499,  502,  503,  504,  660,  661
  664,  665,  668,  669,  670,  671,  672,  673,  674,  675,  676,  677, 2029, 2030, 2231, 2232
 2233, 2234, 2235, 2236, 2237, 2238, 2239, 2240, 2241, 2242, 2243, 2244, 4403, 4404, 4405, 4406
*Elset, elset=Set-140, generate
 577,  594,    1
*Nset, nset=Set-141
   13,   15,   17,   20,   51,   52,   53,   54,  357,  362,  363,  368,  369,  370,  487,  488
  491,  492,  495,  496,  497,  498,  499,  500,  501,  502,  503,  504, 1873, 1874, 2019, 2020
 2021, 2022, 2023, 2024, 2025, 2026, 2027, 2028, 2029, 2030, 2031, 2032, 4335, 4336, 4337, 4338
*Elset, elset=Set-141, generate
 271,  288,    1
*Nset, nset=Set-142
   13,   14,   15,   16,   17,   18,   19,   20,  346,  347,  352,  353,  356,  357,  358,  359
  360,  361,  362,  363,  364,  365,  366,  367,  368,  369,  370,  371, 1863, 1864, 1865, 1866
 1867, 1868, 1869, 1870, 1871, 1872, 1873, 1874, 1875, 1876, 1877, 1878, 4287, 4288, 4289, 4290
*Elset, elset=Set-142, generate
 55,  72,   1
*Nset, nset=Set-143
   95,   96,   97,   98,  149,  150,  151,  152,  677,  678,  679,  682,  683,  686,  928,  929
  932,  933,  936,  937,  938,  939,  940,  941,  942,  943,  944,  945, 2255, 2256, 2607, 2608
 2609, 2610, 2611, 2612, 2613, 2614, 2615, 2616, 2617, 2618, 2619, 2620, 4531, 4532, 4533, 4534
*Elset, elset=Set-143, generate
 1099,  1116,     1
*Nset, nset=Set-144
  109,  112,  113,  114,  173,  174,  175,  176,  741,  744,  745,  748,  749,  750, 1068, 1069
 1072, 1073, 1076, 1077, 1078, 1079, 1080, 1081, 1082, 1083, 1084, 1085, 2329, 2330, 2839, 2840
 2841, 2842, 2843, 2844, 2845, 2846, 2847, 2848, 2849, 2850, 2851, 2852, 4615, 4616, 4617, 4618
*Elset, elset=Set-144, generate
 1419,  1436,     1
*Nset, nset=Set-145
   64,   65,   67,   68,  109,  112,  113,  114,  550,  553,  554,  557,  558,  559,  728,  729
  734,  735,  741,  742,  743,  744,  745,  746,  747,  748,  749,  750, 2093, 2094, 2317, 2318
 2321, 2322, 2323, 2324, 2325, 2326, 2327, 2328, 2329, 2330, 2331, 2332, 4431, 4432, 4433, 4434
*Elset, elset=Set-145, generate
 703,  720,    1
*Nset, nset=Set-146
   26,   27,   29,   30,   64,   65,   67,   68,  399,  400,  401,  404,  405,  408,  539,  540
  545,  546,  550,  551,  552,  553,  554,  555,  556,  557,  558,  559, 1917, 1918, 2081, 2082
 2085, 2086, 2087, 2088, 2089, 2090, 2091, 2092, 2093, 2094, 2095, 2096, 4355, 4356, 4357, 4358
*Elset, elset=Set-146, generate
 361,  378,    1
*Nset, nset=Set-147
   14,   16,   18,   19,   26,   27,   29,   30,  356,  360,  361,  366,  367,  371,  388,  389
  394,  395,  399,  400,  401,  402,  403,  404,  405,  406,  407,  408, 1875, 1876, 1903, 1904
 1907, 1908, 1909, 1910, 1911, 1912, 1913, 1914, 1915, 1916, 1917, 1918, 4299, 4300, 4301, 4302
*Elset, elset=Set-147, generate
 109,  126,    1
*Nset, nset=Set-148
   53,   54,   55,   56,   95,   96,   97,   98,  504,  507,  508,  511,  512,  513,  669,  670
  673,  674,  677,  678,  679,  680,  681,  682,  683,  684,  685,  686, 2041, 2042, 2243, 2244
 2245, 2246, 2247, 2248, 2249, 2250, 2251, 2252, 2253, 2254, 2255, 2256, 4407, 4408, 4409, 4410
*Elset, elset=Set-148, generate
 595,  612,    1
*Nset, nset=Set-149
   17,   20,   22,   23,   53,   54,   55,   56,  370,  374,  375,  380,  381,  384,  496,  497
  500,  501,  504,  505,  506,  507,  508,  509,  510,  511,  512,  513, 1891, 1892, 2031, 2032
 2033, 2034, 2035, 2036, 2037, 2038, 2039, 2040, 2041, 2042, 2043, 2044, 4339, 4340, 4341, 4342
*Elset, elset=Set-149, generate
 289,  306,    1
*Nset, nset=Set-150
   17,   18,   19,   20,   21,   22,   23,   24,  358,  359,  364,  365,  370,  371,  372,  373
  374,  375,  376,  377,  378,  379,  380,  381,  382,  383,  384,  385, 1877, 1878, 1879, 1880
 1881, 1882, 1883, 1884, 1885, 1886, 1887, 1888, 1889, 1890, 1891, 1892, 4291, 4292, 4293, 4294
*Elset, elset=Set-150, generate
 73,  90,   1
*Nset, nset=Set-151
   55,   56,   97,   98,   99,  100,  151,  152,  153,  154,  513,  680,  681,  684,  685,  686
  687,  688,  691,  692,  695,  937,  938,  941,  942,  945,  946,  947,  948,  949,  950,  951
  952,  953,  954,  955,  956,  957,  958,  959,  960, 2253, 2254, 2267, 2268, 2619, 2620, 2621
 2622, 2623, 2624, 2625, 2626, 2627, 2628, 2629, 2630, 2631, 2632, 2633, 2634, 2635, 2636, 2637
 2638, 2639, 2640, 2641, 2642, 2643, 2644, 2645, 2646, 2647, 4535, 4536, 4537, 4538, 4539, 4540
 4541, 4542, 4543, 4544
*Elset, elset=Set-151, generate
 1117,  1152,     1
*Nset, nset=Set-152
   18,   19,   21,   24,   25,   26,   27,   28,  371,  372,  373,  378,  379,  385,  386,  387
  388,  389,  390,  391,  392,  393,  394,  395,  396,  397,  398,  399, 1889, 1890, 1893, 1894
 1895, 1896, 1897, 1898, 1899, 1900, 1901, 1902, 1903, 1904, 1905, 1906, 4295, 4296, 4297, 4298
*Elset, elset=Set-152, generate
  91,  108,    1
*Nset, nset=Set-153
   25,   26,   27,   28,   63,   64,   65,   66,  386,  387,  392,  393,  398,  399,  537,  538
  539,  540,  541,  542,  543,  544,  545,  546,  547,  548,  549,  550, 1905, 1906, 2071, 2072
 2073, 2074, 2075, 2076, 2077, 2078, 2079, 2080, 2081, 2082, 2083, 2084, 4351, 4352, 4353, 4354
*Elset, elset=Set-153, generate
 343,  360,    1
*Nset, nset=Set-154
   63,   64,   65,   66,  109,  110,  111,  112,  537,  538,  543,  544,  549,  550,  728,  729
  730,  731,  732,  733,  734,  735,  736,  737,  738,  739,  740,  741, 2083, 2084, 2307, 2308
 2309, 2310, 2311, 2312, 2313, 2314, 2315, 2316, 2317, 2318, 2319, 2320, 4427, 4428, 4429, 4430
*Elset, elset=Set-154, generate
 685,  702,    1
*Nset, nset=Set-155
  109,  110,  111,  112,  171,  172,  173,  174,  732,  733,  738,  739,  740,  741, 1059, 1060
 1063, 1064, 1067, 1068, 1069, 1070, 1071, 1072, 1073, 1074, 1075, 1076, 2315, 2316, 2827, 2828
 2829, 2830, 2831, 2832, 2833, 2834, 2835, 2836, 2837, 2838, 2839, 2840, 4611, 4612, 4613, 4614
*Elset, elset=Set-155, generate
 1401,  1418,     1
*Nset, nset=Set-156
   63,   66,  107,  108,  110,  111,  169,  170,  171,  172,  549,  721,  722,  725,  726,  727
  730,  731,  736,  737,  740, 1045, 1046, 1047, 1048, 1049, 1050, 1051, 1052, 1053, 1054, 1055
 1059, 1060, 1061, 1062, 1063, 1064, 1065, 1066, 1067, 2303, 2304, 2319, 2320, 2788, 2789, 2790
 2791, 2792, 2805, 2806, 2807, 2808, 2809, 2810, 2811, 2812, 2813, 2814, 2815, 2816, 2817, 2818
 2819, 2820, 2821, 2822, 2823, 2824, 2825, 2826, 2827, 2828, 4601, 4602, 4603, 4604, 4605, 4606
 4607, 4608, 4609, 4610
*Elset, elset=Set-156, generate
 1365,  1400,     1
*Nset, nset=Set-157
   25,   28,   61,   62,   63,   66,  107,  108,  398,  528,  529,  532,  533,  536,  541,  542
  547,  548,  549,  719,  720,  721,  722,  723,  724,  725,  726,  727, 2069, 2070, 2079, 2080
 2295, 2296, 2297, 2298, 2299, 2300, 2301, 2302, 2303, 2304, 2305, 2306, 4423, 4424, 4425, 4426
*Elset, elset=Set-157, generate
 667,  684,    1
*Nset, nset=Set-158
   21,   24,   25,   28,   58,   59,   61,   62,  385,  390,  391,  396,  397,  398,  516,  517
  522,  523,  527,  528,  529,  530,  531,  532,  533,  534,  535,  536, 1901, 1902, 2055, 2056
 2059, 2060, 2061, 2062, 2063, 2064, 2065, 2066, 2067, 2068, 2069, 2070, 4347, 4348, 4349, 4350
*Elset, elset=Set-158, generate
 325,  342,    1
*Nset, nset=Set-159
   21,   22,   23,   24,   57,   58,   59,   60,  376,  377,  382,  383,  384,  385,  514,  515
  516,  517,  518,  519,  520,  521,  522,  523,  524,  525,  526,  527, 1887, 1888, 2045, 2046
 2047, 2048, 2049, 2050, 2051, 2052, 2053, 2054, 2055, 2056, 2057, 2058, 4343, 4344, 4345, 4346
*Elset, elset=Set-159, generate
 307,  324,    1
*Nset, nset=Set-160
   22,   23,   55,   56,   57,   60,   99,  100,  384,  505,  506,  509,  510,  513,  518,  519
  524,  525,  526,  687,  688,  689,  690,  691,  692,  693,  694,  695, 2043, 2044, 2053, 2054
 2257, 2258, 2259, 2260, 2261, 2262, 2263, 2264, 2265, 2266, 2267, 2268, 4411, 4412, 4413, 4414
*Elset, elset=Set-160, generate
 613,  630,    1
*Nset, nset=Set-161
   99,  100,  153,  154,  155,  156,  695,  946,  947,  948,  949,  950,  953,  954,  955,  956
  957,  960,  961,  962,  963,  964,  965,  966,  967,  968,  969,  970,  971,  972,  973, 2643
 2644, 2645, 2646, 2647, 2648, 2649, 2650, 2651, 2652, 2653, 2654, 2655, 2656, 2657, 2658, 2659
 2660, 2661, 2662, 2663, 2664, 2665, 2666, 2667, 2668, 2669, 2670, 2671, 4545, 4546, 4547, 4548
 4549, 4550, 4551, 4552, 4553
*Elset, elset=Set-161, generate
 1153,  1182,     1
*Nset, nset=Set-162
   57,   60,   99,  100,  102,  103,  155,  156,  157,  158,  526,  689,  690,  693,  694,  695
  698,  699,  704,  705,  708,  964,  965,  966,  967,  968,  969,  970,  974,  975,  976,  977
  978,  979,  980,  981,  982, 2265, 2266, 2281, 2282, 2657, 2658, 2659, 2672, 2673, 2674, 2675
 2676, 2677, 2678, 2679, 2680, 2681, 2682, 2683, 2684, 2685, 4554, 4555, 4556, 4557, 4558
*Elset, elset=Set-162, generate
 1183,  1206,     1
*Nset, nset=Set-163
   57,   58,   59,   60,  101,  102,  103,  104,  514,  515,  520,  521,  526,  527,  696,  697
  698,  699,  700,  701,  702,  703,  704,  705,  706,  707,  708,  709, 2057, 2058, 2269, 2270
 2271, 2272, 2273, 2274, 2275, 2276, 2277, 2278, 2279, 2280, 2281, 2282, 4415, 4416, 4417, 4418
*Elset, elset=Set-163, generate
 631,  648,    1
*Nset, nset=Set-164
  101,  102,  103,  104,  159,  160,  161,  162,  700,  701,  706,  707,  708,  709,  985,  986
  987,  988,  989,  990,  991,  992,  993,  996,  997,  998,  999, 1000, 1001, 1002, 1003, 1004
 1005, 1006, 1007, 1008, 2277, 2278, 2692, 2693, 2694, 2695, 2704, 2705, 2706, 2707, 2708, 2709
 2710, 2711, 2712, 2713, 2714, 2715, 2716, 2717, 2718, 2719, 2720, 2721, 2722, 2723, 2724, 2725
 4565, 4566, 4567, 4568, 4569, 4570, 4571, 4572
*Elset, elset=Set-164, generate
 1229,  1258,     1
*Nset, nset=Set-165
  102,  103,  157,  158,  159,  160,  708,  975,  976,  977,  978,  979,  980,  981,  983,  984
  985,  986,  987,  988,  989,  990,  991,  992,  993,  994,  995, 2677, 2678, 2679, 2686, 2687
 2688, 2689, 2690, 2691, 2692, 2693, 2694, 2695, 2696, 2697, 2698, 2699, 2700, 2701, 2702, 2703
 4559, 4560, 4561, 4562, 4563, 4564
*Elset, elset=Set-165, generate
 1207,  1228,     1
*Nset, nset=Set-166
  101,  104,  105,  106,  161,  162,  163,  164,  709,  710,  711,  714,  715,  718,  996,  997
  998,  999, 1002, 1003, 1004, 1005, 1008, 1009, 1010, 1011, 1012, 1013, 1014, 1015, 1016, 1017
 1018, 1019, 1020, 1021, 2293, 2294, 2722, 2723, 2724, 2725, 2726, 2727, 2728, 2729, 2730, 2731
 2732, 2733, 2734, 2735, 2736, 2737, 2738, 2739, 2740, 2741, 2742, 2743, 2744, 2745, 2746, 2747
 4573, 4574, 4575, 4576, 4577, 4578, 4579, 4580
*Elset, elset=Set-166, generate
 1259,  1288,     1
*Nset, nset=Set-167
   58,   59,   61,   62,  101,  104,  105,  106,  527,  530,  531,  534,  535,  536,  696,  697
  702,  703,  709,  710,  711,  712,  713,  714,  715,  716,  717,  718, 2067, 2068, 2279, 2280
 2283, 2284, 2285, 2286, 2287, 2288, 2289, 2290, 2291, 2292, 2293, 2294, 4419, 4420, 4421, 4422
*Elset, elset=Set-167, generate
 649,  666,    1
*Nset, nset=Set-168
   61,   62,  105,  106,  107,  108,  165,  166,  167,  168,  536,  712,  713,  716,  717,  718
  719,  720,  723,  724,  727, 1024, 1025, 1026, 1027, 1028, 1029, 1030, 1033, 1034, 1035, 1036
 1037, 1038, 1039, 1040, 1041, 2291, 2292, 2305, 2306, 2754, 2755, 2756, 2765, 2766, 2767, 2768
 2769, 2770, 2771, 2772, 2773, 2774, 2775, 2776, 2777, 2778, 4587, 4588, 4589, 4590, 4591
*Elset, elset=Set-168, generate
 1311,  1334,     1
*Nset, nset=Set-169
  105,  106,  163,  164,  165,  166,  718, 1009, 1010, 1011, 1012, 1015, 1016, 1017, 1018, 1021
 1022, 1023, 1024, 1025, 1026, 1027, 1028, 1029, 1030, 1031, 1032, 2744, 2745, 2746, 2747, 2748
 2749, 2750, 2751, 2752, 2753, 2754, 2755, 2756, 2757, 2758, 2759, 2760, 2761, 2762, 2763, 2764
 4581, 4582, 4583, 4584, 4585, 4586
*Elset, elset=Set-169, generate
 1289,  1310,     1
*Nset, nset=Set-170
  107,  108,  167,  168,  169,  170,  727, 1034, 1035, 1036, 1037, 1038, 1039, 1040, 1042, 1043
 1044, 1045, 1046, 1047, 1048, 1049, 1050, 1051, 1052, 1053, 1054, 1055, 1056, 1057, 1058, 2770
 2771, 2772, 2779, 2780, 2781, 2782, 2783, 2784, 2785, 2786, 2787, 2788, 2789, 2790, 2791, 2792
 2793, 2794, 2795, 2796, 2797, 2798, 2799, 2800, 2801, 2802, 2803, 2804, 4592, 4593, 4594, 4595
 4596, 4597, 4598, 4599, 4600
*Elset, elset=Set-170, generate
 1335,  1364,     1
** Section: Section-1
*Solid Section, elset=Set-118, material=Material-active
,
** Section: Section-1
*Solid Section, elset=Set-127, material=Material-active
,
** Section: Section-2
*Solid Section, elset=Set-135, material=Material-passive
,
** Section: Section-2
*Solid Section, elset=Set-142, material=Material-passive
,
** Section: Section-2
*Solid Section, elset=Set-150, material=Material-passive
,
** Section: Section-2
*Solid Section, elset=Set-152, material=Material-passive
,
** Section: Section-1
*Solid Section, elset=Set-147, material=Material-active
,
** Section: Section-1
*Solid Section, elset=Set-134, material=Material-active
,
** Section: Section-1
*Solid Section, elset=Set-126, material=Material-active
,
** Section: Section-2
*Solid Section, elset=Set-119, material=Material-passive
,
** Section: Section-1
*Solid Section, elset=Set-105, material=Material-active
,
** Section: Section-2
*Solid Section, elset=Set-112, material=Material-passive
,
** Section: Section-1
*Solid Section, elset=Set-117, material=Material-active
,
** Section: Section-2
*Solid Section, elset=Set-125, material=Material-passive
,
** Section: Section-1
*Solid Section, elset=Set-136, material=Material-active
,
** Section: Section-1
*Solid Section, elset=Set-141, material=Material-active
,
** Section: Section-2
*Solid Section, elset=Set-149, material=Material-passive
,
** Section: Section-1
*Solid Section, elset=Set-159, material=Material-active
,
** Section: Section-2
*Solid Section, elset=Set-158, material=Material-passive
,
** Section: Section-2
*Solid Section, elset=Set-153, material=Material-passive
,
** Section: Section-1
*Solid Section, elset=Set-146, material=Material-active
,
** Section: Section-2
*Solid Section, elset=Set-133, material=Material-passive
,
** Section: Section-2
*Solid Section, elset=Set-128, material=Material-passive
,
** Section: Section-1
*Solid Section, elset=Set-120, material=Material-active
,
** Section: Section-1
*Solid Section, elset=Set-111, material=Material-active
,
** Section: Section-2
*Solid Section, elset=Set-106, material=Material-passive
,
** Section: Section-1
*Solid Section, elset=Set-101, material=Material-active
,
** Section: Section-2
*Solid Section, elset=Set-104, material=Material-passive
,
** Section: Section-1
*Solid Section, elset=Set-113, material=Material-active
,
** Section: Section-2
*Solid Section, elset=Set-116, material=Material-passive
,
** Section: Section-1
*Solid Section, elset=Set-124, material=Material-active
,
** Section: Section-1
*Solid Section, elset=Set-137, material=Material-active
,
** Section: Section-2
*Solid Section, elset=Set-140, material=Material-passive
,
** Section: Section-2
*Solid Section, elset=Set-148, material=Material-passive
,
** Section: Section-1
*Solid Section, elset=Set-160, material=Material-active
,
** Section: Section-2
*Solid Section, elset=Set-163, material=Material-passive
,
** Section: Section-2
*Solid Section, elset=Set-167, material=Material-passive
,
** Section: Section-2
*Solid Section, elset=Set-157, material=Material-passive
,
** Section: Section-2
*Solid Section, elset=Set-154, material=Material-passive
,
** Section: Section-2
*Solid Section, elset=Set-145, material=Material-passive
,
** Section: Section-1
*Solid Section, elset=Set-132, material=Material-active
,
** Section: Section-1
*Solid Section, elset=Set-121, material=Material-active
,
** Section: Section-2
*Solid Section, elset=Set-110, material=Material-passive
,
** Section: Section-1
*Solid Section, elset=Set-107, material=Material-active
,
** Section: Section-2
*Solid Section, elset=Set-100, material=Material-passive
,
** Section: Section-1
*Solid Section, elset=Set-97, material=Material-active
,
** Section: Section-2
*Solid Section, elset=Set-96, material=Material-passive
,
** Section: Section-1
*Solid Section, elset=Set-95, material=Material-active
,
** Section: Section-2
*Solid Section, elset=Set-102, material=Material-passive
,
** Section: Section-2
*Solid Section, elset=Set-103, material=Material-passive
,
** Section: Section-2
*Solid Section, elset=Set-114, material=Material-passive
,
** Section: Section-1
*Solid Section, elset=Set-115, material=Material-active
,
** Section: Section-1
*Solid Section, elset=Set-123, material=Material-active
,
** Section: Section-1
*Solid Section, elset=Set-138, material=Material-active
,
** Section: Section-2
*Solid Section, elset=Set-139, material=Material-passive
,
** Section: Section-1
*Solid Section, elset=Set-143, material=Material-active
,
** Section: Section-1
*Solid Section, elset=Set-151, material=Material-active
,
** Section: Section-2
*Solid Section, elset=Set-161, material=Material-passive
,
** Section: Section-1
*Solid Section, elset=Set-162, material=Material-active
,
** Section: Section-2
*Solid Section, elset=Set-165, material=Material-passive
,
** Section: Section-1
*Solid Section, elset=Set-164, material=Material-active
,
** Section: Section-2
*Solid Section, elset=Set-166, material=Material-passive
,
** Section: Section-1
*Solid Section, elset=Set-169, material=Material-active
,
** Section: Section-1
*Solid Section, elset=Set-168, material=Material-active
,
** Section: Section-2
*Solid Section, elset=Set-170, material=Material-passive
,
** Section: Section-1
*Solid Section, elset=Set-156, material=Material-active
,
** Section: Section-2
*Solid Section, elset=Set-155, material=Material-passive
,
** Section: Section-1
*Solid Section, elset=Set-144, material=Material-active
,
** Section: Section-1
*Solid Section, elset=Set-131, material=Material-active
,
** Section: Section-2
*Solid Section, elset=Set-130, material=Material-passive
,
** Section: Section-2
*Solid Section, elset=Set-122, material=Material-passive
,
** Section: Section-1
*Solid Section, elset=Set-109, material=Material-active
,
** Section: Section-2
*Solid Section, elset=Set-108, material=Material-passive
,
** Section: Section-2
*Solid Section, elset=Set-99, material=Material-passive
,
** Section: Section-2
*Solid Section, elset=Set-98, material=Material-passive
,
** Section: Section-1
*Solid Section, elset=Set-93, material=Material-active
,
** Section: Section-2
*Solid Section, elset=Set-94, material=Material-passive
,
** Section: Section-1
*Solid Section, elset=Set-38, material=Material-active
,
** Section: Section-1
*Solid Section, elset=Set-46, material=Material-active
,
** Section: Section-1
*Solid Section, elset=Set-54, material=Material-active
,
** Section: Section-2
*Solid Section, elset=Set-63, material=Material-passive
,
** Section: Section-2
*Solid Section, elset=Set-70, material=Material-passive
,
** Section: Section-1
*Solid Section, elset=Set-71, material=Material-active
,
** Section: Section-1
*Solid Section, elset=Set-62, material=Material-active
,
** Section: Section-1
*Solid Section, elset=Set-55, material=Material-active
,
** Section: Section-1
*Solid Section, elset=Set-47, material=Material-active
,
** Section: Section-2
*Solid Section, elset=Set-39, material=Material-passive
,
** Section: Section-1
*Solid Section, elset=Set-26, material=Material-active
,
** Section: Section-1
*Solid Section, elset=Set-31, material=Material-active
,
** Section: Section-2
*Solid Section, elset=Set-37, material=Material-passive
,
** Section: Section-2
*Solid Section, elset=Set-45, material=Material-passive
,
** Section: Section-1
*Solid Section, elset=Set-53, material=Material-active
,
** Section: Section-1
*Solid Section, elset=Set-64, material=Material-active
,
** Section: Section-1
*Solid Section, elset=Set-69, material=Material-active
,
** Section: Section-2
*Solid Section, elset=Set-78, material=Material-passive
,
** Section: Section-1
*Solid Section, elset=Set-77, material=Material-active
,
** Section: Section-1
*Solid Section, elset=Set-72, material=Material-active
,
** Section: Section-1
*Solid Section, elset=Set-61, material=Material-active
,
** Section: Section-2
*Solid Section, elset=Set-56, material=Material-passive
,
** Section: Section-2
*Solid Section, elset=Set-48, material=Material-passive
,
** Section: Section-1
*Solid Section, elset=Set-40, material=Material-active
,
** Section: Section-2
*Solid Section, elset=Set-32, material=Material-passive
,
** Section: Section-1
*Solid Section, elset=Set-25, material=Material-active
,
** Section: Section-1
*Solid Section, elset=Set-20, material=Material-active
,
** Section: Section-2
*Solid Section, elset=Set-27, material=Material-passive
,
** Section: Section-1
*Solid Section, elset=Set-30, material=Material-active
,
** Section: Section-2
*Solid Section, elset=Set-36, material=Material-passive
,
** Section: Section-2
*Solid Section, elset=Set-44, material=Material-passive
,
** Section: Section-2
*Solid Section, elset=Set-52, material=Material-passive
,
** Section: Section-1
*Solid Section, elset=Set-65, material=Material-active
,
** Section: Section-2
*Solid Section, elset=Set-68, material=Material-passive
,
** Section: Section-1
*Solid Section, elset=Set-79, material=Material-active
,
** Section: Section-1
*Solid Section, elset=Set-83, material=Material-active
,
** Section: Section-2
*Solid Section, elset=Set-84, material=Material-passive
,
** Section: Section-2
*Solid Section, elset=Set-76, material=Material-passive
,
** Section: Section-2
*Solid Section, elset=Set-73, material=Material-passive
,
** Section: Section-2
*Solid Section, elset=Set-60, material=Material-passive
,
** Section: Section-1
*Solid Section, elset=Set-57, material=Material-active
,
** Section: Section-2
*Solid Section, elset=Set-41, material=Material-passive
,
** Section: Section-1
*Solid Section, elset=Set-33, material=Material-active
,
** Section: Section-2
*Solid Section, elset=Set-24, material=Material-passive
,
** Section: Section-1
*Solid Section, elset=Set-21, material=Material-active
,
** Section: Section-2
*Solid Section, elset=Set-16, material=Material-passive
,
** Section: Section-1
*Solid Section, elset=Set-17, material=Material-active
,
** Section: Section-1
*Solid Section, elset=Set-18, material=Material-active
,
** Section: Section-2
*Solid Section, elset=Set-19, material=Material-passive
,
** Section: Section-1
*Solid Section, elset=Set-28, material=Material-active
,
** Section: Section-2
*Solid Section, elset=Set-29, material=Material-passive
,
** Section: Section-1
*Solid Section, elset=Set-35, material=Material-active
,
** Section: Section-1
*Solid Section, elset=Set-43, material=Material-active
,
** Section: Section-1
*Solid Section, elset=Set-51, material=Material-active
,
** Section: Section-1
*Solid Section, elset=Set-66, material=Material-active
,
** Section: Section-1
*Solid Section, elset=Set-67, material=Material-active
,
** Section: Section-1
*Solid Section, elset=Set-80, material=Material-active
,
** Section: Section-1
*Solid Section, elset=Set-81, material=Material-active
,
** Section: Section-2
*Solid Section, elset=Set-82, material=Material-passive
,
** Section: Section-2
*Solid Section, elset=Set-90, material=Material-passive
,
** Section: Section-2
*Solid Section, elset=Set-89, material=Material-passive
,
** Section: Section-2
*Solid Section, elset=Set-88, material=Material-passive
,
** Section: Section-1
*Solid Section, elset=Set-87, material=Material-active
,
** Section: Section-1
*Solid Section, elset=Set-85, material=Material-active
,
** Section: Section-1
*Solid Section, elset=Set-86, material=Material-active
,
** Section: Section-1
*Solid Section, elset=Set-75, material=Material-active
,
** Section: Section-2
*Solid Section, elset=Set-74, material=Material-passive
,
** Section: Section-2
*Solid Section, elset=Set-59, material=Material-passive
,
** Section: Section-1
*Solid Section, elset=Set-58, material=Material-active
,
** Section: Section-1
*Solid Section, elset=Set-50, material=Material-active
,
** Section: Section-2
*Solid Section, elset=Set-42, material=Material-passive
,
** Section: Section-1
*Solid Section, elset=Set-34, material=Material-active
,
** Section: Section-2
*Solid Section, elset=Set-23, material=Material-passive
,
** Section: Section-2
*Solid Section, elset=Set-22, material=Material-passive
,
** Section: Section-1
*Solid Section, elset=Set-15, material=Material-active
,
** Section: Section-2
*Solid Section, elset=Set-14, material=Material-passive
,
** Section: Section-1
*Solid Section, elset=Set-13, material=Material-active
,
** Section: Section-1
*Solid Section, elset=Set-129, material=Material-active
,
** Section: Section-1
*Solid Section, elset=Set-49, material=Material-active
,
** Section: Section-2
*Solid Section, elset=Set-92, material=Material-passive
,
** Section: Section-1
*Solid Section, elset=Set-91, material=Material-active
,
** Section: Section-1
*Solid Section, elset=Set-11, material=Material-active
,
** Section: Section-2
*Solid Section, elset=Set-12, material=Material-passive
,
*End Part
**  
**
** ASSEMBLY
**
*Assembly, name=Assembly
**  
*Instance, name=Part-1-1, part=Part-1
*End Instance
**  
*Nset, nset=_PickedSet4, internal, instance=Part-1-1
 299, 304, 307, 308
*Nset, nset=_PickedSet5, internal, instance=Part-1-1, generate
    1,  5330,     1
*Elset, elset=_PickedSet5, internal, instance=Part-1-1, generate
    1,  4040,     1
*End Assembly
** 
** MATERIALS
** 
*Material, name=Material-active
*Density
 1e-06,
*Expansion
 0.001,
*Hyperelastic, neo hooke
 0.1, 0.002
*Material, name=Material-passive
*Density
 1e-06,
*Expansion
0.,
*Hyperelastic, neo hooke
 0.1, 0.002
** 
** BOUNDARY CONDITIONS
** 
** Name: BC-1 Type: /
*Boundary
_PickedSet4, 1, 1
_PickedSet4, 2, 2
_PickedSet4, 3, 3
** 
** PREDEFINED FIELDS
** 
** Name: Predefined Field-1   Type: Temperature
*Initial Conditions, type=TEMPERATURE
_PickedSet5, 25.
** ----------------------------------------------------------------
** 
** STEP: Step-1
** 
*Step, name=Step-1, nlgeom=YES, inc=10000
*Static
0.1, 6., 1e-05, 0.5
** 
** PREDEFINED FIELDS
** 
** Name: Predefined Field-1   Type: Temperature
*Temperature
_PickedSet5, 85.
** 
** OUTPUT REQUESTS
** 
*Restart, write, frequency=0
** 
** FIELD OUTPUT: F-Output-1
** 
*Output, field, number interval=4
*Node Output
NT, U
*Element Output, directions=YES
S, TEMP
** 
** HISTORY OUTPUT: H-Output-1
** 
*Output, history, variable=PRESELECT
*End Step
