*Heading
** Job name: curvedsurface Model name: Model-1
** Generated by: Abaqus/CAE 2020
*Preprint, echo=NO, model=NO, history=NO, contact=NO
**
** PARTS
**
*Part, name=Part-1
*Node
      1,   7.63007069,   2.40458298,           1.
      2,   8.13443375,   2.56005573,           1.
      3,   8.63898277,   2.71492147,           1.
      4,   9.14373016,   2.86914206,           1.
      5,    9.6486845,   3.02268004,           1.
      6,   10.1538582,   3.17549706,           1.
      7,   10.6592607,   3.32755542,           1.
      8,   11.1649027,   3.47881675,           1.
      9,   11.6707935,   3.62924337,           1.
     10,   12.1769428,   3.77879667,           1.
     11,   12.6833601,   3.92743874,           1.
     12,   13.1900558,   4.07513142,           1.
     13,   13.6970377,   4.22183609,           1.
     14,   14.2043161,   4.36751461,           1.
     15,   14.7118988,   4.51212883,           1.
     16,   15.2197943,   4.65563965,           1.
     17,   15.7280111,   4.79800892,           1.
     18,    16.236557,   4.93919849,           1.
     19,   16.7454395,   5.07916927,           1.
     20,   17.2546673,   5.21788168,           1.
** ... 7675 like lines cut
*Element, type=C3D8H
   1,  406,  407,  488,  487,    1,    2,   83,   82
   2,  407,  408,  489,  488,    2,    3,   84,   83
   3,  408,  409,  490,  489,    3,    4,   85,   84
   4,  409,  410,  491,  490,    4,    5,   86,   85
   5,  410,  411,  492,  491,    5,    6,   87,   86
   6,  411,  412,  493,  492,    6,    7,   88,   87
   7,  412,  413,  494,  493,    7,    8,   89,   88
   8,  413,  414,  495,  494,    8,    9,   90,   89
   9,  414,  415,  496,  495,    9,   10,   91,   90
  10,  415,  416,  497,  496,   10,   11,   92,   91
  11,  416,  417,  498,  497,   11,   12,   93,   92
  12,  417,  418,  499,  498,   12,   13,   94,   93
  13,  418,  419,  500,  499,   13,   14,   95,   94
  14,  419,  420,  501,  500,   14,   15,   96,   95
  15,  420,  421,  502,  501,   15,   16,   97,   96
  16,  421,  422,  503,  502,   16,   17,   98,   97
  17,  422,  423,  504,  503,   17,   18,   99,   98
  18,  423,  424,  505,  504,   18,   19,  100,   99
  19,  424,  425,  506,  505,   19,   20,  101,  100
  20,  425,  426,  507,  506,   20,   21,  102,  101
** ... 5740 like lines cut
*Elset, elset=Set-0
 4961, 4962, 4963, 4964, 4965, 4966, 4967, 4968, 5041, 5042, 5043, 5044, 5045, 5046, 5047, 5048
 5281, 5282, 5283, 5284, 5285, 5286, 5287, 5288, 5361, 5362, 5363, 5364, 5365, 5366, 5367, 5368
 5601, 5602, 5603, 5604, 5605, 5606, 5607, 5608, 5681, 5682, 5683, 5684, 5685, 5686, 5687, 5688
*Elset, elset=Set-1
 4001, 4002, 4003, 4004, 4005, 4006, 4007, 4008, 4081, 4082, 4083, 4084, 4085, 4086, 4087, 4088
 4321, 4322, 4323, 4324, 4325, 4326, 4327, 4328, 4401, 4402, 4403, 4404, 4405, 4406, 4407, 4408
 4641, 4642, 4643, 4644, 4645, 4646, 4647, 4648, 4721, 4722, 4723, 4724, 4725, 4726, 4727, 4728
*Elset, elset=Set-2
 3041, 3042, 3043, 3044, 3045, 3046, 3047, 3048, 3121, 3122, 3123, 3124, 3125, 3126, 3127, 3128
 3361, 3362, 3363, 3364, 3365, 3366, 3367, 3368, 3441, 3442, 3443, 3444, 3445, 3446, 3447, 3448
 3681, 3682, 3683, 3684, 3685, 3686, 3687, 3688, 3761, 3762, 3763, 3764, 3765, 3766, 3767, 3768
*Elset, elset=Set-3
 2081, 2082, 2083, 2084, 2085, 2086, 2087, 2088, 2161, 2162, 2163, 2164, 2165, 2166, 2167, 2168
 2401, 2402, 2403, 2404, 2405, 2406, 2407, 2408, 2481, 2482, 2483, 2484, 2485, 2486, 2487, 2488
 2721, 2722, 2723, 2724, 2725, 2726, 2727, 2728, 2801, 2802, 2803, 2804, 2805, 2806, 2807, 2808
*Elset, elset=Set-4
 1121, 1122, 1123, 1124, 1125, 1126, 1127, 1128, 1201, 1202, 1203, 1204, 1205, 1206, 1207, 1208
 1441, 1442, 1443, 1444, 1445, 1446, 1447, 1448, 1521, 1522, 1523, 1524, 1525, 1526, 1527, 1528
 1761, 1762, 1763, 1764, 1765, 1766, 1767, 1768, 1841, 1842, 1843, 1844, 1845, 1846, 1847, 1848
*Elset, elset=Set-5
 161, 162, 163, 164, 165, 166, 167, 168, 241, 242, 243, 244, 245, 246, 247, 248
 481, 482, 483, 484, 485, 486, 487, 488, 561, 562, 563, 564, 565, 566, 567, 568
 801, 802, 803, 804, 805, 806, 807, 808, 881, 882, 883, 884, 885, 886, 887, 888
*Elset, elset=Set-6
 4969, 4970, 4971, 4972, 4973, 4974, 4975, 4976, 5049, 5050, 5051, 5052, 5053, 5054, 5055, 5056
 5289, 5290, 5291, 5292, 5293, 5294, 5295, 5296, 5369, 5370, 5371, 5372, 5373, 5374, 5375, 5376
 5609, 5610, 5611, 5612, 5613, 5614, 5615, 5616, 5689, 5690, 5691, 5692, 5693, 5694, 5695, 5696
*Elset, elset=Set-7
 4009, 4010, 4011, 4012, 4013, 4014, 4015, 4016, 4089, 4090, 4091, 4092, 4093, 4094, 4095, 4096
 4329, 4330, 4331, 4332, 4333, 4334, 4335, 4336, 4409, 4410, 4411, 4412, 4413, 4414, 4415, 4416
 4649, 4650, 4651, 4652, 4653, 4654, 4655, 4656, 4729, 4730, 4731, 4732, 4733, 4734, 4735, 4736
*Elset, elset=Set-8
 3049, 3050, 3051, 3052, 3053, 3054, 3055, 3056, 3129, 3130, 3131, 3132, 3133, 3134, 3135, 3136
 3369, 3370, 3371, 3372, 3373, 3374, 3375, 3376, 3449, 3450, 3451, 3452, 3453, 3454, 3455, 3456
 3689, 3690, 3691, 3692, 3693, 3694, 3695, 3696, 3769, 3770, 3771, 3772, 3773, 3774, 3775, 3776
*Elset, elset=Set-9
 2089, 2090, 2091, 2092, 2093, 2094, 2095, 2096, 2169, 2170, 2171, 2172, 2173, 2174, 2175, 2176
 2409, 2410, 2411, 2412, 2413, 2414, 2415, 2416, 2489, 2490, 2491, 2492, 2493, 2494, 2495, 2496
 2729, 2730, 2731, 2732, 2733, 2734, 2735, 2736, 2809, 2810, 2811, 2812, 2813, 2814, 2815, 2816
*Elset, elset=Set-10
 1129, 1130, 1131, 1132, 1133, 1134, 1135, 1136, 1209, 1210, 1211, 1212, 1213, 1214, 1215, 1216
 1449, 1450, 1451, 1452, 1453, 1454, 1455, 1456, 1529, 1530, 1531, 1532, 1533, 1534, 1535, 1536
 1769, 1770, 1771, 1772, 1773, 1774, 1775, 1776, 1849, 1850, 1851, 1852, 1853, 1854, 1855, 1856
*Elset, elset=Set-11
 169, 170, 171, 172, 173, 174, 175, 176, 249, 250, 251, 252, 253, 254, 255, 256
 489, 490, 491, 492, 493, 494, 495, 496, 569, 570, 571, 572, 573, 574, 575, 576
 809, 810, 811, 812, 813, 814, 815, 816, 889, 890, 891, 892, 893, 894, 895, 896
*Elset, elset=Set-12
 4977, 4978, 4979, 4980, 4981, 4982, 4983, 4984, 5057, 5058, 5059, 5060, 5061, 5062, 5063, 5064
 5297, 5298, 5299, 5300, 5301, 5302, 5303, 5304, 5377, 5378, 5379, 5380, 5381, 5382, 5383, 5384
 5617, 5618, 5619, 5620, 5621, 5622, 5623, 5624, 5697, 5698, 5699, 5700, 5701, 5702, 5703, 5704
*Elset, elset=Set-13
 4017, 4018, 4019, 4020, 4021, 4022, 4023, 4024, 4097, 4098, 4099, 4100, 4101, 4102, 4103, 4104
 4337, 4338, 4339, 4340, 4341, 4342, 4343, 4344, 4417, 4418, 4419, 4420, 4421, 4422, 4423, 4424
 4657, 4658, 4659, 4660, 4661, 4662, 4663, 4664, 4737, 4738, 4739, 4740, 4741, 4742, 4743, 4744
*Elset, elset=Set-14
 3057, 3058, 3059, 3060, 3061, 3062, 3063, 3064, 3137, 3138, 3139, 3140, 3141, 3142, 3143, 3144
 3377, 3378, 3379, 3380, 3381, 3382, 3383, 3384, 3457, 3458, 3459, 3460, 3461, 3462, 3463, 3464
 3697, 3698, 3699, 3700, 3701, 3702, 3703, 3704, 3777, 3778, 3779, 3780, 3781, 3782, 3783, 3784
*Elset, elset=Set-15
 2097, 2098, 2099, 2100, 2101, 2102, 2103, 2104, 2177, 2178, 2179, 2180, 2181, 2182, 2183, 2184
 2417, 2418, 2419, 2420, 2421, 2422, 2423, 2424, 2497, 2498, 2499, 2500, 2501, 2502, 2503, 2504
 2737, 2738, 2739, 2740, 2741, 2742, 2743, 2744, 2817, 2818, 2819, 2820, 2821, 2822, 2823, 2824
*Elset, elset=Set-16
 1137, 1138, 1139, 1140, 1141, 1142, 1143, 1144, 1217, 1218, 1219, 1220, 1221, 1222, 1223, 1224
 1457, 1458, 1459, 1460, 1461, 1462, 1463, 1464, 1537, 1538, 1539, 1540, 1541, 1542, 1543, 1544
 1777, 1778, 1779, 1780, 1781, 1782, 1783, 1784, 1857, 1858, 1859, 1860, 1861, 1862, 1863, 1864
*Elset, elset=Set-17
 177, 178, 179, 180, 181, 182, 183, 184, 257, 258, 259, 260, 261, 262, 263, 264
 497, 498, 499, 500, 501, 502, 503, 504, 577, 578, 579, 580, 581, 582, 583, 584
 817, 818, 819, 820, 821, 822, 823, 824, 897, 898, 899, 900, 901, 902, 903, 904
*Elset, elset=Set-18
 4985, 4986, 4987, 4988, 4989, 4990, 4991, 4992, 5065, 5066, 5067, 5068, 5069, 5070, 5071, 5072
 5305, 5306, 5307, 5308, 5309, 5310, 5311, 5312, 5385, 5386, 5387, 5388, 5389, 5390, 5391, 5392
 5625, 5626, 5627, 5628, 5629, 5630, 5631, 5632, 5705, 5706, 5707, 5708, 5709, 5710, 5711, 5712
*Elset, elset=Set-19
 4025, 4026, 4027, 4028, 4029, 4030, 4031, 4032, 4105, 4106, 4107, 4108, 4109, 4110, 4111, 4112
 4345, 4346, 4347, 4348, 4349, 4350, 4351, 4352, 4425, 4426, 4427, 4428, 4429, 4430, 4431, 4432
 4665, 4666, 4667, 4668, 4669, 4670, 4671, 4672, 4745, 4746, 4747, 4748, 4749, 4750, 4751, 4752
*Elset, elset=Set-20
 3065, 3066, 3067, 3068, 3069, 3070, 3071, 3072, 3145, 3146, 3147, 3148, 3149, 3150, 3151, 3152
 3385, 3386, 3387, 3388, 3389, 3390, 3391, 3392, 3465, 3466, 3467, 3468, 3469, 3470, 3471, 3472
 3705, 3706, 3707, 3708, 3709, 3710, 3711, 3712, 3785, 3786, 3787, 3788, 3789, 3790, 3791, 3792
*Elset, elset=Set-21
 2105, 2106, 2107, 2108, 2109, 2110, 2111, 2112, 2185, 2186, 2187, 2188, 2189, 2190, 2191, 2192
 2425, 2426, 2427, 2428, 2429, 2430, 2431, 2432, 2505, 2506, 2507, 2508, 2509, 2510, 2511, 2512
 2745, 2746, 2747, 2748, 2749, 2750, 2751, 2752, 2825, 2826, 2827, 2828, 2829, 2830, 2831, 2832
*Elset, elset=Set-22
 1145, 1146, 1147, 1148, 1149, 1150, 1151, 1152, 1225, 1226, 1227, 1228, 1229, 1230, 1231, 1232
 1465, 1466, 1467, 1468, 1469, 1470, 1471, 1472, 1545, 1546, 1547, 1548, 1549, 1550, 1551, 1552
 1785, 1786, 1787, 1788, 1789, 1790, 1791, 1792, 1865, 1866, 1867, 1868, 1869, 1870, 1871, 1872
*Elset, elset=Set-23
 185, 186, 187, 188, 189, 190, 191, 192, 265, 266, 267, 268, 269, 270, 271, 272
 505, 506, 507, 508, 509, 510, 511, 512, 585, 586, 587, 588, 589, 590, 591, 592
 825, 826, 827, 828, 829, 830, 831, 832, 905, 906, 907, 908, 909, 910, 911, 912
*Elset, elset=Set-24
 4993, 4994, 4995, 4996, 4997, 4998, 4999, 5000, 5073, 5074, 5075, 5076, 5077, 5078, 5079, 5080
 5313, 5314, 5315, 5316, 5317, 5318, 5319, 5320, 5393, 5394, 5395, 5396, 5397, 5398, 5399, 5400
 5633, 5634, 5635, 5636, 5637, 5638, 5639, 5640, 5713, 5714, 5715, 5716, 5717, 5718, 5719, 5720
*Elset, elset=Set-25
 4033, 4034, 4035, 4036, 4037, 4038, 4039, 4040, 4113, 4114, 4115, 4116, 4117, 4118, 4119, 4120
 4353, 4354, 4355, 4356, 4357, 4358, 4359, 4360, 4433, 4434, 4435, 4436, 4437, 4438, 4439, 4440
 4673, 4674, 4675, 4676, 4677, 4678, 4679, 4680, 4753, 4754, 4755, 4756, 4757, 4758, 4759, 4760
*Elset, elset=Set-26
 3073, 3074, 3075, 3076, 3077, 3078, 3079, 3080, 3153, 3154, 3155, 3156, 3157, 3158, 3159, 3160
 3393, 3394, 3395, 3396, 3397, 3398, 3399, 3400, 3473, 3474, 3475, 3476, 3477, 3478, 3479, 3480
 3713, 3714, 3715, 3716, 3717, 3718, 3719, 3720, 3793, 3794, 3795, 3796, 3797, 3798, 3799, 3800
*Elset, elset=Set-27
 2113, 2114, 2115, 2116, 2117, 2118, 2119, 2120, 2193, 2194, 2195, 2196, 2197, 2198, 2199, 2200
 2433, 2434, 2435, 2436, 2437, 2438, 2439, 2440, 2513, 2514, 2515, 2516, 2517, 2518, 2519, 2520
 2753, 2754, 2755, 2756, 2757, 2758, 2759, 2760, 2833, 2834, 2835, 2836, 2837, 2838, 2839, 2840
*Elset, elset=Set-28
 1153, 1154, 1155, 1156, 1157, 1158, 1159, 1160, 1233, 1234, 1235, 1236, 1237, 1238, 1239, 1240
 1473, 1474, 1475, 1476, 1477, 1478, 1479, 1480, 1553, 1554, 1555, 1556, 1557, 1558, 1559, 1560
 1793, 1794, 1795, 1796, 1797, 1798, 1799, 1800, 1873, 1874, 1875, 1876, 1877, 1878, 1879, 1880
*Elset, elset=Set-29
 193, 194, 195, 196, 197, 198, 199, 200, 273, 274, 275, 276, 277, 278, 279, 280
 513, 514, 515, 516, 517, 518, 519, 520, 593, 594, 595, 596, 597, 598, 599, 600
 833, 834, 835, 836, 837, 838, 839, 840, 913, 914, 915, 916, 917, 918, 919, 920
*Elset, elset=Set-30
 5001, 5002, 5003, 5004, 5005, 5006, 5007, 5008, 5081, 5082, 5083, 5084, 5085, 5086, 5087, 5088
 5321, 5322, 5323, 5324, 5325, 5326, 5327, 5328, 5401, 5402, 5403, 5404, 5405, 5406, 5407, 5408
 5641, 5642, 5643, 5644, 5645, 5646, 5647, 5648, 5721, 5722, 5723, 5724, 5725, 5726, 5727, 5728
*Elset, elset=Set-31
 4041, 4042, 4043, 4044, 4045, 4046, 4047, 4048, 4121, 4122, 4123, 4124, 4125, 4126, 4127, 4128
 4361, 4362, 4363, 4364, 4365, 4366, 4367, 4368, 4441, 4442, 4443, 4444, 4445, 4446, 4447, 4448
 4681, 4682, 4683, 4684, 4685, 4686, 4687, 4688, 4761, 4762, 4763, 4764, 4765, 4766, 4767, 4768
*Elset, elset=Set-32
 3081, 3082, 3083, 3084, 3085, 3086, 3087, 3088, 3161, 3162, 3163, 3164, 3165, 3166, 3167, 3168
 3401, 3402, 3403, 3404, 3405, 3406, 3407, 3408, 3481, 3482, 3483, 3484, 3485, 3486, 3487, 3488
 3721, 3722, 3723, 3724, 3725, 3726, 3727, 3728, 3801, 3802, 3803, 3804, 3805, 3806, 3807, 3808
*Elset, elset=Set-33
 2121, 2122, 2123, 2124, 2125, 2126, 2127, 2128, 2201, 2202, 2203, 2204, 2205, 2206, 2207, 2208
 2441, 2442, 2443, 2444, 2445, 2446, 2447, 2448, 2521, 2522, 2523, 2524, 2525, 2526, 2527, 2528
 2761, 2762, 2763, 2764, 2765, 2766, 2767, 2768, 2841, 2842, 2843, 2844, 2845, 2846, 2847, 2848
*Elset, elset=Set-34
 1161, 1162, 1163, 1164, 1165, 1166, 1167, 1168, 1241, 1242, 1243, 1244, 1245, 1246, 1247, 1248
 1481, 1482, 1483, 1484, 1485, 1486, 1487, 1488, 1561, 1562, 1563, 1564, 1565, 1566, 1567, 1568
 1801, 1802, 1803, 1804, 1805, 1806, 1807, 1808, 1881, 1882, 1883, 1884, 1885, 1886, 1887, 1888
*Elset, elset=Set-35
 201, 202, 203, 204, 205, 206, 207, 208, 281, 282, 283, 284, 285, 286, 287, 288
 521, 522, 523, 524, 525, 526, 527, 528, 601, 602, 603, 604, 605, 606, 607, 608
 841, 842, 843, 844, 845, 846, 847, 848, 921, 922, 923, 924, 925, 926, 927, 928
*Elset, elset=Set-36
 5009, 5010, 5011, 5012, 5013, 5014, 5015, 5016, 5089, 5090, 5091, 5092, 5093, 5094, 5095, 5096
 5329, 5330, 5331, 5332, 5333, 5334, 5335, 5336, 5409, 5410, 5411, 5412, 5413, 5414, 5415, 5416
 5649, 5650, 5651, 5652, 5653, 5654, 5655, 5656, 5729, 5730, 5731, 5732, 5733, 5734, 5735, 5736
*Elset, elset=Set-37
 4049, 4050, 4051, 4052, 4053, 4054, 4055, 4056, 4129, 4130, 4131, 4132, 4133, 4134, 4135, 4136
 4369, 4370, 4371, 4372, 4373, 4374, 4375, 4376, 4449, 4450, 4451, 4452, 4453, 4454, 4455, 4456
 4689, 4690, 4691, 4692, 4693, 4694, 4695, 4696, 4769, 4770, 4771, 4772, 4773, 4774, 4775, 4776
*Elset, elset=Set-38
 3089, 3090, 3091, 3092, 3093, 3094, 3095, 3096, 3169, 3170, 3171, 3172, 3173, 3174, 3175, 3176
 3409, 3410, 3411, 3412, 3413, 3414, 3415, 3416, 3489, 3490, 3491, 3492, 3493, 3494, 3495, 3496
 3729, 3730, 3731, 3732, 3733, 3734, 3735, 3736, 3809, 3810, 3811, 3812, 3813, 3814, 3815, 3816
*Elset, elset=Set-39
 2129, 2130, 2131, 2132, 2133, 2134, 2135, 2136, 2209, 2210, 2211, 2212, 2213, 2214, 2215, 2216
 2449, 2450, 2451, 2452, 2453, 2454, 2455, 2456, 2529, 2530, 2531, 2532, 2533, 2534, 2535, 2536
 2769, 2770, 2771, 2772, 2773, 2774, 2775, 2776, 2849, 2850, 2851, 2852, 2853, 2854, 2855, 2856
*Elset, elset=Set-40
 1169, 1170, 1171, 1172, 1173, 1174, 1175, 1176, 1249, 1250, 1251, 1252, 1253, 1254, 1255, 1256
 1489, 1490, 1491, 1492, 1493, 1494, 1495, 1496, 1569, 1570, 1571, 1572, 1573, 1574, 1575, 1576
 1809, 1810, 1811, 1812, 1813, 1814, 1815, 1816, 1889, 1890, 1891, 1892, 1893, 1894, 1895, 1896
*Elset, elset=Set-41
 209, 210, 211, 212, 213, 214, 215, 216, 289, 290, 291, 292, 293, 294, 295, 296
 529, 530, 531, 532, 533, 534, 535, 536, 609, 610, 611, 612, 613, 614, 615, 616
 849, 850, 851, 852, 853, 854, 855, 856, 929, 930, 931, 932, 933, 934, 935, 936
*Elset, elset=Set-42
 5017, 5018, 5019, 5020, 5021, 5022, 5023, 5024, 5097, 5098, 5099, 5100, 5101, 5102, 5103, 5104
 5337, 5338, 5339, 5340, 5341, 5342, 5343, 5344, 5417, 5418, 5419, 5420, 5421, 5422, 5423, 5424
 5657, 5658, 5659, 5660, 5661, 5662, 5663, 5664, 5737, 5738, 5739, 5740, 5741, 5742, 5743, 5744
*Elset, elset=Set-43
 4057, 4058, 4059, 4060, 4061, 4062, 4063, 4064, 4137, 4138, 4139, 4140, 4141, 4142, 4143, 4144
 4377, 4378, 4379, 4380, 4381, 4382, 4383, 4384, 4457, 4458, 4459, 4460, 4461, 4462, 4463, 4464
 4697, 4698, 4699, 4700, 4701, 4702, 4703, 4704, 4777, 4778, 4779, 4780, 4781, 4782, 4783, 4784
*Elset, elset=Set-44
 3097, 3098, 3099, 3100, 3101, 3102, 3103, 3104, 3177, 3178, 3179, 3180, 3181, 3182, 3183, 3184
 3417, 3418, 3419, 3420, 3421, 3422, 3423, 3424, 3497, 3498, 3499, 3500, 3501, 3502, 3503, 3504
 3737, 3738, 3739, 3740, 3741, 3742, 3743, 3744, 3817, 3818, 3819, 3820, 3821, 3822, 3823, 3824
*Elset, elset=Set-45
 2137, 2138, 2139, 2140, 2141, 2142, 2143, 2144, 2217, 2218, 2219, 2220, 2221, 2222, 2223, 2224
 2457, 2458, 2459, 2460, 2461, 2462, 2463, 2464, 2537, 2538, 2539, 2540, 2541, 2542, 2543, 2544
 2777, 2778, 2779, 2780, 2781, 2782, 2783, 2784, 2857, 2858, 2859, 2860, 2861, 2862, 2863, 2864
*Elset, elset=Set-46
 1177, 1178, 1179, 1180, 1181, 1182, 1183, 1184, 1257, 1258, 1259, 1260, 1261, 1262, 1263, 1264
 1497, 1498, 1499, 1500, 1501, 1502, 1503, 1504, 1577, 1578, 1579, 1580, 1581, 1582, 1583, 1584
 1817, 1818, 1819, 1820, 1821, 1822, 1823, 1824, 1897, 1898, 1899, 1900, 1901, 1902, 1903, 1904
*Elset, elset=Set-47
 217, 218, 219, 220, 221, 222, 223, 224, 297, 298, 299, 300, 301, 302, 303, 304
 537, 538, 539, 540, 541, 542, 543, 544, 617, 618, 619, 620, 621, 622, 623, 624
 857, 858, 859, 860, 861, 862, 863, 864, 937, 938, 939, 940, 941, 942, 943, 944
*Elset, elset=Set-48
 5025, 5026, 5027, 5028, 5029, 5030, 5031, 5032, 5105, 5106, 5107, 5108, 5109, 5110, 5111, 5112
 5345, 5346, 5347, 5348, 5349, 5350, 5351, 5352, 5425, 5426, 5427, 5428, 5429, 5430, 5431, 5432
 5665, 5666, 5667, 5668, 5669, 5670, 5671, 5672, 5745, 5746, 5747, 5748, 5749, 5750, 5751, 5752
*Elset, elset=Set-49
 4065, 4066, 4067, 4068, 4069, 4070, 4071, 4072, 4145, 4146, 4147, 4148, 4149, 4150, 4151, 4152
 4385, 4386, 4387, 4388, 4389, 4390, 4391, 4392, 4465, 4466, 4467, 4468, 4469, 4470, 4471, 4472
 4705, 4706, 4707, 4708, 4709, 4710, 4711, 4712, 4785, 4786, 4787, 4788, 4789, 4790, 4791, 4792
*Elset, elset=Set-50
 3105, 3106, 3107, 3108, 3109, 3110, 3111, 3112, 3185, 3186, 3187, 3188, 3189, 3190, 3191, 3192
 3425, 3426, 3427, 3428, 3429, 3430, 3431, 3432, 3505, 3506, 3507, 3508, 3509, 3510, 3511, 3512
 3745, 3746, 3747, 3748, 3749, 3750, 3751, 3752, 3825, 3826, 3827, 3828, 3829, 3830, 3831, 3832
*Elset, elset=Set-51
 2145, 2146, 2147, 2148, 2149, 2150, 2151, 2152, 2225, 2226, 2227, 2228, 2229, 2230, 2231, 2232
 2465, 2466, 2467, 2468, 2469, 2470, 2471, 2472, 2545, 2546, 2547, 2548, 2549, 2550, 2551, 2552
 2785, 2786, 2787, 2788, 2789, 2790, 2791, 2792, 2865, 2866, 2867, 2868, 2869, 2870, 2871, 2872
*Elset, elset=Set-52
 1185, 1186, 1187, 1188, 1189, 1190, 1191, 1192, 1265, 1266, 1267, 1268, 1269, 1270, 1271, 1272
 1505, 1506, 1507, 1508, 1509, 1510, 1511, 1512, 1585, 1586, 1587, 1588, 1589, 1590, 1591, 1592
 1825, 1826, 1827, 1828, 1829, 1830, 1831, 1832, 1905, 1906, 1907, 1908, 1909, 1910, 1911, 1912
*Elset, elset=Set-53
 225, 226, 227, 228, 229, 230, 231, 232, 305, 306, 307, 308, 309, 310, 311, 312
 545, 546, 547, 548, 549, 550, 551, 552, 625, 626, 627, 628, 629, 630, 631, 632
 865, 866, 867, 868, 869, 870, 871, 872, 945, 946, 947, 948, 949, 950, 951, 952
*Elset, elset=Set-54
 5033, 5034, 5035, 5036, 5037, 5038, 5039, 5040, 5113, 5114, 5115, 5116, 5117, 5118, 5119, 5120
 5353, 5354, 5355, 5356, 5357, 5358, 5359, 5360, 5433, 5434, 5435, 5436, 5437, 5438, 5439, 5440
 5673, 5674, 5675, 5676, 5677, 5678, 5679, 5680, 5753, 5754, 5755, 5756, 5757, 5758, 5759, 5760
*Elset, elset=Set-55
 4073, 4074, 4075, 4076, 4077, 4078, 4079, 4080, 4153, 4154, 4155, 4156, 4157, 4158, 4159, 4160
 4393, 4394, 4395, 4396, 4397, 4398, 4399, 4400, 4473, 4474, 4475, 4476, 4477, 4478, 4479, 4480
 4713, 4714, 4715, 4716, 4717, 4718, 4719, 4720, 4793, 4794, 4795, 4796, 4797, 4798, 4799, 4800
*Elset, elset=Set-56
 3113, 3114, 3115, 3116, 3117, 3118, 3119, 3120, 3193, 3194, 3195, 3196, 3197, 3198, 3199, 3200
 3433, 3434, 3435, 3436, 3437, 3438, 3439, 3440, 3513, 3514, 3515, 3516, 3517, 3518, 3519, 3520
 3753, 3754, 3755, 3756, 3757, 3758, 3759, 3760, 3833, 3834, 3835, 3836, 3837, 3838, 3839, 3840
*Elset, elset=Set-57
 2153, 2154, 2155, 2156, 2157, 2158, 2159, 2160, 2233, 2234, 2235, 2236, 2237, 2238, 2239, 2240
 2473, 2474, 2475, 2476, 2477, 2478, 2479, 2480, 2553, 2554, 2555, 2556, 2557, 2558, 2559, 2560
 2793, 2794, 2795, 2796, 2797, 2798, 2799, 2800, 2873, 2874, 2875, 2876, 2877, 2878, 2879, 2880
*Elset, elset=Set-58
 1193, 1194, 1195, 1196, 1197, 1198, 1199, 1200, 1273, 1274, 1275, 1276, 1277, 1278, 1279, 1280
 1513, 1514, 1515, 1516, 1517, 1518, 1519, 1520, 1593, 1594, 1595, 1596, 1597, 1598, 1599, 1600
 1833, 1834, 1835, 1836, 1837, 1838, 1839, 1840, 1913, 1914, 1915, 1916, 1917, 1918, 1919, 1920
*Elset, elset=Set-59
 233, 234, 235, 236, 237, 238, 239, 240, 313, 314, 315, 316, 317, 318, 319, 320
 553, 554, 555, 556, 557, 558, 559, 560, 633, 634, 635, 636, 637, 638, 639, 640
 873, 874, 875, 876, 877, 878, 879, 880, 953, 954, 955, 956, 957, 958, 959, 960
*Elset, elset=Set-60
 4801, 4802, 4803, 4804, 4805, 4806, 4807, 4808, 4881, 4882, 4883, 4884, 4885, 4886, 4887, 4888
 5121, 5122, 5123, 5124, 5125, 5126, 5127, 5128, 5201, 5202, 5203, 5204, 5205, 5206, 5207, 5208
 5441, 5442, 5443, 5444, 5445, 5446, 5447, 5448, 5521, 5522, 5523, 5524, 5525, 5526, 5527, 5528
*Elset, elset=Set-61
 3841, 3842, 3843, 3844, 3845, 3846, 3847, 3848, 3921, 3922, 3923, 3924, 3925, 3926, 3927, 3928
 4161, 4162, 4163, 4164, 4165, 4166, 4167, 4168, 4241, 4242, 4243, 4244, 4245, 4246, 4247, 4248
 4481, 4482, 4483, 4484, 4485, 4486, 4487, 4488, 4561, 4562, 4563, 4564, 4565, 4566, 4567, 4568
*Elset, elset=Set-62
 2881, 2882, 2883, 2884, 2885, 2886, 2887, 2888, 2961, 2962, 2963, 2964, 2965, 2966, 2967, 2968
 3201, 3202, 3203, 3204, 3205, 3206, 3207, 3208, 3281, 3282, 3283, 3284, 3285, 3286, 3287, 3288
 3521, 3522, 3523, 3524, 3525, 3526, 3527, 3528, 3601, 3602, 3603, 3604, 3605, 3606, 3607, 3608
*Elset, elset=Set-63
 1921, 1922, 1923, 1924, 1925, 1926, 1927, 1928, 2001, 2002, 2003, 2004, 2005, 2006, 2007, 2008
 2241, 2242, 2243, 2244, 2245, 2246, 2247, 2248, 2321, 2322, 2323, 2324, 2325, 2326, 2327, 2328
 2561, 2562, 2563, 2564, 2565, 2566, 2567, 2568, 2641, 2642, 2643, 2644, 2645, 2646, 2647, 2648
*Elset, elset=Set-64
  961,  962,  963,  964,  965,  966,  967,  968, 1041, 1042, 1043, 1044, 1045, 1046, 1047, 1048
 1281, 1282, 1283, 1284, 1285, 1286, 1287, 1288, 1361, 1362, 1363, 1364, 1365, 1366, 1367, 1368
 1601, 1602, 1603, 1604, 1605, 1606, 1607, 1608, 1681, 1682, 1683, 1684, 1685, 1686, 1687, 1688
*Elset, elset=Set-65
   1,   2,   3,   4,   5,   6,   7,   8,  81,  82,  83,  84,  85,  86,  87,  88
 321, 322, 323, 324, 325, 326, 327, 328, 401, 402, 403, 404, 405, 406, 407, 408
 641, 642, 643, 644, 645, 646, 647, 648, 721, 722, 723, 724, 725, 726, 727, 728
*Elset, elset=Set-66
 4809, 4810, 4811, 4812, 4813, 4814, 4815, 4816, 4889, 4890, 4891, 4892, 4893, 4894, 4895, 4896
 5129, 5130, 5131, 5132, 5133, 5134, 5135, 5136, 5209, 5210, 5211, 5212, 5213, 5214, 5215, 5216
 5449, 5450, 5451, 5452, 5453, 5454, 5455, 5456, 5529, 5530, 5531, 5532, 5533, 5534, 5535, 5536
*Elset, elset=Set-67
 3849, 3850, 3851, 3852, 3853, 3854, 3855, 3856, 3929, 3930, 3931, 3932, 3933, 3934, 3935, 3936
 4169, 4170, 4171, 4172, 4173, 4174, 4175, 4176, 4249, 4250, 4251, 4252, 4253, 4254, 4255, 4256
 4489, 4490, 4491, 4492, 4493, 4494, 4495, 4496, 4569, 4570, 4571, 4572, 4573, 4574, 4575, 4576
*Elset, elset=Set-68
 2889, 2890, 2891, 2892, 2893, 2894, 2895, 2896, 2969, 2970, 2971, 2972, 2973, 2974, 2975, 2976
 3209, 3210, 3211, 3212, 3213, 3214, 3215, 3216, 3289, 3290, 3291, 3292, 3293, 3294, 3295, 3296
 3529, 3530, 3531, 3532, 3533, 3534, 3535, 3536, 3609, 3610, 3611, 3612, 3613, 3614, 3615, 3616
*Elset, elset=Set-69
 1929, 1930, 1931, 1932, 1933, 1934, 1935, 1936, 2009, 2010, 2011, 2012, 2013, 2014, 2015, 2016
 2249, 2250, 2251, 2252, 2253, 2254, 2255, 2256, 2329, 2330, 2331, 2332, 2333, 2334, 2335, 2336
 2569, 2570, 2571, 2572, 2573, 2574, 2575, 2576, 2649, 2650, 2651, 2652, 2653, 2654, 2655, 2656
*Elset, elset=Set-70
  969,  970,  971,  972,  973,  974,  975,  976, 1049, 1050, 1051, 1052, 1053, 1054, 1055, 1056
 1289, 1290, 1291, 1292, 1293, 1294, 1295, 1296, 1369, 1370, 1371, 1372, 1373, 1374, 1375, 1376
 1609, 1610, 1611, 1612, 1613, 1614, 1615, 1616, 1689, 1690, 1691, 1692, 1693, 1694, 1695, 1696
*Elset, elset=Set-71
   9,  10,  11,  12,  13,  14,  15,  16,  89,  90,  91,  92,  93,  94,  95,  96
 329, 330, 331, 332, 333, 334, 335, 336, 409, 410, 411, 412, 413, 414, 415, 416
 649, 650, 651, 652, 653, 654, 655, 656, 729, 730, 731, 732, 733, 734, 735, 736
*Elset, elset=Set-72
 4817, 4818, 4819, 4820, 4821, 4822, 4823, 4824, 4897, 4898, 4899, 4900, 4901, 4902, 4903, 4904
 5137, 5138, 5139, 5140, 5141, 5142, 5143, 5144, 5217, 5218, 5219, 5220, 5221, 5222, 5223, 5224
 5457, 5458, 5459, 5460, 5461, 5462, 5463, 5464, 5537, 5538, 5539, 5540, 5541, 5542, 5543, 5544
*Elset, elset=Set-73
 3857, 3858, 3859, 3860, 3861, 3862, 3863, 3864, 3937, 3938, 3939, 3940, 3941, 3942, 3943, 3944
 4177, 4178, 4179, 4180, 4181, 4182, 4183, 4184, 4257, 4258, 4259, 4260, 4261, 4262, 4263, 4264
 4497, 4498, 4499, 4500, 4501, 4502, 4503, 4504, 4577, 4578, 4579, 4580, 4581, 4582, 4583, 4584
*Elset, elset=Set-74
 2897, 2898, 2899, 2900, 2901, 2902, 2903, 2904, 2977, 2978, 2979, 2980, 2981, 2982, 2983, 2984
 3217, 3218, 3219, 3220, 3221, 3222, 3223, 3224, 3297, 3298, 3299, 3300, 3301, 3302, 3303, 3304
 3537, 3538, 3539, 3540, 3541, 3542, 3543, 3544, 3617, 3618, 3619, 3620, 3621, 3622, 3623, 3624
*Elset, elset=Set-75
 1937, 1938, 1939, 1940, 1941, 1942, 1943, 1944, 2017, 2018, 2019, 2020, 2021, 2022, 2023, 2024
 2257, 2258, 2259, 2260, 2261, 2262, 2263, 2264, 2337, 2338, 2339, 2340, 2341, 2342, 2343, 2344
 2577, 2578, 2579, 2580, 2581, 2582, 2583, 2584, 2657, 2658, 2659, 2660, 2661, 2662, 2663, 2664
*Elset, elset=Set-76
  977,  978,  979,  980,  981,  982,  983,  984, 1057, 1058, 1059, 1060, 1061, 1062, 1063, 1064
 1297, 1298, 1299, 1300, 1301, 1302, 1303, 1304, 1377, 1378, 1379, 1380, 1381, 1382, 1383, 1384
 1617, 1618, 1619, 1620, 1621, 1622, 1623, 1624, 1697, 1698, 1699, 1700, 1701, 1702, 1703, 1704
*Elset, elset=Set-77
  17,  18,  19,  20,  21,  22,  23,  24,  97,  98,  99, 100, 101, 102, 103, 104
 337, 338, 339, 340, 341, 342, 343, 344, 417, 418, 419, 420, 421, 422, 423, 424
 657, 658, 659, 660, 661, 662, 663, 664, 737, 738, 739, 740, 741, 742, 743, 744
*Elset, elset=Set-78
 4825, 4826, 4827, 4828, 4829, 4830, 4831, 4832, 4905, 4906, 4907, 4908, 4909, 4910, 4911, 4912
 5145, 5146, 5147, 5148, 5149, 5150, 5151, 5152, 5225, 5226, 5227, 5228, 5229, 5230, 5231, 5232
 5465, 5466, 5467, 5468, 5469, 5470, 5471, 5472, 5545, 5546, 5547, 5548, 5549, 5550, 5551, 5552
*Elset, elset=Set-79
 3865, 3866, 3867, 3868, 3869, 3870, 3871, 3872, 3945, 3946, 3947, 3948, 3949, 3950, 3951, 3952
 4185, 4186, 4187, 4188, 4189, 4190, 4191, 4192, 4265, 4266, 4267, 4268, 4269, 4270, 4271, 4272
 4505, 4506, 4507, 4508, 4509, 4510, 4511, 4512, 4585, 4586, 4587, 4588, 4589, 4590, 4591, 4592
*Elset, elset=Set-80
 2905, 2906, 2907, 2908, 2909, 2910, 2911, 2912, 2985, 2986, 2987, 2988, 2989, 2990, 2991, 2992
 3225, 3226, 3227, 3228, 3229, 3230, 3231, 3232, 3305, 3306, 3307, 3308, 3309, 3310, 3311, 3312
 3545, 3546, 3547, 3548, 3549, 3550, 3551, 3552, 3625, 3626, 3627, 3628, 3629, 3630, 3631, 3632
*Elset, elset=Set-81
 1945, 1946, 1947, 1948, 1949, 1950, 1951, 1952, 2025, 2026, 2027, 2028, 2029, 2030, 2031, 2032
 2265, 2266, 2267, 2268, 2269, 2270, 2271, 2272, 2345, 2346, 2347, 2348, 2349, 2350, 2351, 2352
 2585, 2586, 2587, 2588, 2589, 2590, 2591, 2592, 2665, 2666, 2667, 2668, 2669, 2670, 2671, 2672
*Elset, elset=Set-82
  985,  986,  987,  988,  989,  990,  991,  992, 1065, 1066, 1067, 1068, 1069, 1070, 1071, 1072
 1305, 1306, 1307, 1308, 1309, 1310, 1311, 1312, 1385, 1386, 1387, 1388, 1389, 1390, 1391, 1392
 1625, 1626, 1627, 1628, 1629, 1630, 1631, 1632, 1705, 1706, 1707, 1708, 1709, 1710, 1711, 1712
*Elset, elset=Set-83
  25,  26,  27,  28,  29,  30,  31,  32, 105, 106, 107, 108, 109, 110, 111, 112
 345, 346, 347, 348, 349, 350, 351, 352, 425, 426, 427, 428, 429, 430, 431, 432
 665, 666, 667, 668, 669, 670, 671, 672, 745, 746, 747, 748, 749, 750, 751, 752
*Elset, elset=Set-84
 4833, 4834, 4835, 4836, 4837, 4838, 4839, 4840, 4913, 4914, 4915, 4916, 4917, 4918, 4919, 4920
 5153, 5154, 5155, 5156, 5157, 5158, 5159, 5160, 5233, 5234, 5235, 5236, 5237, 5238, 5239, 5240
 5473, 5474, 5475, 5476, 5477, 5478, 5479, 5480, 5553, 5554, 5555, 5556, 5557, 5558, 5559, 5560
*Elset, elset=Set-85
 3873, 3874, 3875, 3876, 3877, 3878, 3879, 3880, 3953, 3954, 3955, 3956, 3957, 3958, 3959, 3960
 4193, 4194, 4195, 4196, 4197, 4198, 4199, 4200, 4273, 4274, 4275, 4276, 4277, 4278, 4279, 4280
 4513, 4514, 4515, 4516, 4517, 4518, 4519, 4520, 4593, 4594, 4595, 4596, 4597, 4598, 4599, 4600
*Elset, elset=Set-86
 2913, 2914, 2915, 2916, 2917, 2918, 2919, 2920, 2993, 2994, 2995, 2996, 2997, 2998, 2999, 3000
 3233, 3234, 3235, 3236, 3237, 3238, 3239, 3240, 3313, 3314, 3315, 3316, 3317, 3318, 3319, 3320
 3553, 3554, 3555, 3556, 3557, 3558, 3559, 3560, 3633, 3634, 3635, 3636, 3637, 3638, 3639, 3640
*Elset, elset=Set-87
 1953, 1954, 1955, 1956, 1957, 1958, 1959, 1960, 2033, 2034, 2035, 2036, 2037, 2038, 2039, 2040
 2273, 2274, 2275, 2276, 2277, 2278, 2279, 2280, 2353, 2354, 2355, 2356, 2357, 2358, 2359, 2360
 2593, 2594, 2595, 2596, 2597, 2598, 2599, 2600, 2673, 2674, 2675, 2676, 2677, 2678, 2679, 2680
*Elset, elset=Set-88
  993,  994,  995,  996,  997,  998,  999, 1000, 1073, 1074, 1075, 1076, 1077, 1078, 1079, 1080
 1313, 1314, 1315, 1316, 1317, 1318, 1319, 1320, 1393, 1394, 1395, 1396, 1397, 1398, 1399, 1400
 1633, 1634, 1635, 1636, 1637, 1638, 1639, 1640, 1713, 1714, 1715, 1716, 1717, 1718, 1719, 1720
*Elset, elset=Set-89
  33,  34,  35,  36,  37,  38,  39,  40, 113, 114, 115, 116, 117, 118, 119, 120
 353, 354, 355, 356, 357, 358, 359, 360, 433, 434, 435, 436, 437, 438, 439, 440
 673, 674, 675, 676, 677, 678, 679, 680, 753, 754, 755, 756, 757, 758, 759, 760
*Elset, elset=Set-90
 4841, 4842, 4843, 4844, 4845, 4846, 4847, 4848, 4921, 4922, 4923, 4924, 4925, 4926, 4927, 4928
 5161, 5162, 5163, 5164, 5165, 5166, 5167, 5168, 5241, 5242, 5243, 5244, 5245, 5246, 5247, 5248
 5481, 5482, 5483, 5484, 5485, 5486, 5487, 5488, 5561, 5562, 5563, 5564, 5565, 5566, 5567, 5568
*Elset, elset=Set-91
 3881, 3882, 3883, 3884, 3885, 3886, 3887, 3888, 3961, 3962, 3963, 3964, 3965, 3966, 3967, 3968
 4201, 4202, 4203, 4204, 4205, 4206, 4207, 4208, 4281, 4282, 4283, 4284, 4285, 4286, 4287, 4288
 4521, 4522, 4523, 4524, 4525, 4526, 4527, 4528, 4601, 4602, 4603, 4604, 4605, 4606, 4607, 4608
*Elset, elset=Set-92
 2921, 2922, 2923, 2924, 2925, 2926, 2927, 2928, 3001, 3002, 3003, 3004, 3005, 3006, 3007, 3008
 3241, 3242, 3243, 3244, 3245, 3246, 3247, 3248, 3321, 3322, 3323, 3324, 3325, 3326, 3327, 3328
 3561, 3562, 3563, 3564, 3565, 3566, 3567, 3568, 3641, 3642, 3643, 3644, 3645, 3646, 3647, 3648
*Elset, elset=Set-93
 1961, 1962, 1963, 1964, 1965, 1966, 1967, 1968, 2041, 2042, 2043, 2044, 2045, 2046, 2047, 2048
 2281, 2282, 2283, 2284, 2285, 2286, 2287, 2288, 2361, 2362, 2363, 2364, 2365, 2366, 2367, 2368
 2601, 2602, 2603, 2604, 2605, 2606, 2607, 2608, 2681, 2682, 2683, 2684, 2685, 2686, 2687, 2688
*Elset, elset=Set-94
 1001, 1002, 1003, 1004, 1005, 1006, 1007, 1008, 1081, 1082, 1083, 1084, 1085, 1086, 1087, 1088
 1321, 1322, 1323, 1324, 1325, 1326, 1327, 1328, 1401, 1402, 1403, 1404, 1405, 1406, 1407, 1408
 1641, 1642, 1643, 1644, 1645, 1646, 1647, 1648, 1721, 1722, 1723, 1724, 1725, 1726, 1727, 1728
*Elset, elset=Set-95
  41,  42,  43,  44,  45,  46,  47,  48, 121, 122, 123, 124, 125, 126, 127, 128
 361, 362, 363, 364, 365, 366, 367, 368, 441, 442, 443, 444, 445, 446, 447, 448
 681, 682, 683, 684, 685, 686, 687, 688, 761, 762, 763, 764, 765, 766, 767, 768
*Elset, elset=Set-96
 4849, 4850, 4851, 4852, 4853, 4854, 4855, 4856, 4929, 4930, 4931, 4932, 4933, 4934, 4935, 4936
 5169, 5170, 5171, 5172, 5173, 5174, 5175, 5176, 5249, 5250, 5251, 5252, 5253, 5254, 5255, 5256
 5489, 5490, 5491, 5492, 5493, 5494, 5495, 5496, 5569, 5570, 5571, 5572, 5573, 5574, 5575, 5576
*Elset, elset=Set-97
 3889, 3890, 3891, 3892, 3893, 3894, 3895, 3896, 3969, 3970, 3971, 3972, 3973, 3974, 3975, 3976
 4209, 4210, 4211, 4212, 4213, 4214, 4215, 4216, 4289, 4290, 4291, 4292, 4293, 4294, 4295, 4296
 4529, 4530, 4531, 4532, 4533, 4534, 4535, 4536, 4609, 4610, 4611, 4612, 4613, 4614, 4615, 4616
*Elset, elset=Set-98
 2929, 2930, 2931, 2932, 2933, 2934, 2935, 2936, 3009, 3010, 3011, 3012, 3013, 3014, 3015, 3016
 3249, 3250, 3251, 3252, 3253, 3254, 3255, 3256, 3329, 3330, 3331, 3332, 3333, 3334, 3335, 3336
 3569, 3570, 3571, 3572, 3573, 3574, 3575, 3576, 3649, 3650, 3651, 3652, 3653, 3654, 3655, 3656
*Elset, elset=Set-99
 1969, 1970, 1971, 1972, 1973, 1974, 1975, 1976, 2049, 2050, 2051, 2052, 2053, 2054, 2055, 2056
 2289, 2290, 2291, 2292, 2293, 2294, 2295, 2296, 2369, 2370, 2371, 2372, 2373, 2374, 2375, 2376
 2609, 2610, 2611, 2612, 2613, 2614, 2615, 2616, 2689, 2690, 2691, 2692, 2693, 2694, 2695, 2696
*Elset, elset=Set-100
 1009, 1010, 1011, 1012, 1013, 1014, 1015, 1016, 1089, 1090, 1091, 1092, 1093, 1094, 1095, 1096
 1329, 1330, 1331, 1332, 1333, 1334, 1335, 1336, 1409, 1410, 1411, 1412, 1413, 1414, 1415, 1416
 1649, 1650, 1651, 1652, 1653, 1654, 1655, 1656, 1729, 1730, 1731, 1732, 1733, 1734, 1735, 1736
*Elset, elset=Set-101
  49,  50,  51,  52,  53,  54,  55,  56, 129, 130, 131, 132, 133, 134, 135, 136
 369, 370, 371, 372, 373, 374, 375, 376, 449, 450, 451, 452, 453, 454, 455, 456
 689, 690, 691, 692, 693, 694, 695, 696, 769, 770, 771, 772, 773, 774, 775, 776
*Elset, elset=Set-102
 4857, 4858, 4859, 4860, 4861, 4862, 4863, 4864, 4937, 4938, 4939, 4940, 4941, 4942, 4943, 4944
 5177, 5178, 5179, 5180, 5181, 5182, 5183, 5184, 5257, 5258, 5259, 5260, 5261, 5262, 5263, 5264
 5497, 5498, 5499, 5500, 5501, 5502, 5503, 5504, 5577, 5578, 5579, 5580, 5581, 5582, 5583, 5584
*Elset, elset=Set-103
 3897, 3898, 3899, 3900, 3901, 3902, 3903, 3904, 3977, 3978, 3979, 3980, 3981, 3982, 3983, 3984
 4217, 4218, 4219, 4220, 4221, 4222, 4223, 4224, 4297, 4298, 4299, 4300, 4301, 4302, 4303, 4304
 4537, 4538, 4539, 4540, 4541, 4542, 4543, 4544, 4617, 4618, 4619, 4620, 4621, 4622, 4623, 4624
*Elset, elset=Set-104
 2937, 2938, 2939, 2940, 2941, 2942, 2943, 2944, 3017, 3018, 3019, 3020, 3021, 3022, 3023, 3024
 3257, 3258, 3259, 3260, 3261, 3262, 3263, 3264, 3337, 3338, 3339, 3340, 3341, 3342, 3343, 3344
 3577, 3578, 3579, 3580, 3581, 3582, 3583, 3584, 3657, 3658, 3659, 3660, 3661, 3662, 3663, 3664
*Elset, elset=Set-105
 1977, 1978, 1979, 1980, 1981, 1982, 1983, 1984, 2057, 2058, 2059, 2060, 2061, 2062, 2063, 2064
 2297, 2298, 2299, 2300, 2301, 2302, 2303, 2304, 2377, 2378, 2379, 2380, 2381, 2382, 2383, 2384
 2617, 2618, 2619, 2620, 2621, 2622, 2623, 2624, 2697, 2698, 2699, 2700, 2701, 2702, 2703, 2704
*Elset, elset=Set-106
 1017, 1018, 1019, 1020, 1021, 1022, 1023, 1024, 1097, 1098, 1099, 1100, 1101, 1102, 1103, 1104
 1337, 1338, 1339, 1340, 1341, 1342, 1343, 1344, 1417, 1418, 1419, 1420, 1421, 1422, 1423, 1424
 1657, 1658, 1659, 1660, 1661, 1662, 1663, 1664, 1737, 1738, 1739, 1740, 1741, 1742, 1743, 1744
*Elset, elset=Set-107
  57,  58,  59,  60,  61,  62,  63,  64, 137, 138, 139, 140, 141, 142, 143, 144
 377, 378, 379, 380, 381, 382, 383, 384, 457, 458, 459, 460, 461, 462, 463, 464
 697, 698, 699, 700, 701, 702, 703, 704, 777, 778, 779, 780, 781, 782, 783, 784
*Elset, elset=Set-108
 4865, 4866, 4867, 4868, 4869, 4870, 4871, 4872, 4945, 4946, 4947, 4948, 4949, 4950, 4951, 4952
 5185, 5186, 5187, 5188, 5189, 5190, 5191, 5192, 5265, 5266, 5267, 5268, 5269, 5270, 5271, 5272
 5505, 5506, 5507, 5508, 5509, 5510, 5511, 5512, 5585, 5586, 5587, 5588, 5589, 5590, 5591, 5592
*Elset, elset=Set-109
 3905, 3906, 3907, 3908, 3909, 3910, 3911, 3912, 3985, 3986, 3987, 3988, 3989, 3990, 3991, 3992
 4225, 4226, 4227, 4228, 4229, 4230, 4231, 4232, 4305, 4306, 4307, 4308, 4309, 4310, 4311, 4312
 4545, 4546, 4547, 4548, 4549, 4550, 4551, 4552, 4625, 4626, 4627, 4628, 4629, 4630, 4631, 4632
*Elset, elset=Set-110
 2945, 2946, 2947, 2948, 2949, 2950, 2951, 2952, 3025, 3026, 3027, 3028, 3029, 3030, 3031, 3032
 3265, 3266, 3267, 3268, 3269, 3270, 3271, 3272, 3345, 3346, 3347, 3348, 3349, 3350, 3351, 3352
 3585, 3586, 3587, 3588, 3589, 3590, 3591, 3592, 3665, 3666, 3667, 3668, 3669, 3670, 3671, 3672
*Elset, elset=Set-111
 1985, 1986, 1987, 1988, 1989, 1990, 1991, 1992, 2065, 2066, 2067, 2068, 2069, 2070, 2071, 2072
 2305, 2306, 2307, 2308, 2309, 2310, 2311, 2312, 2385, 2386, 2387, 2388, 2389, 2390, 2391, 2392
 2625, 2626, 2627, 2628, 2629, 2630, 2631, 2632, 2705, 2706, 2707, 2708, 2709, 2710, 2711, 2712
*Elset, elset=Set-112
 1025, 1026, 1027, 1028, 1029, 1030, 1031, 1032, 1105, 1106, 1107, 1108, 1109, 1110, 1111, 1112
 1345, 1346, 1347, 1348, 1349, 1350, 1351, 1352, 1425, 1426, 1427, 1428, 1429, 1430, 1431, 1432
 1665, 1666, 1667, 1668, 1669, 1670, 1671, 1672, 1745, 1746, 1747, 1748, 1749, 1750, 1751, 1752
*Elset, elset=Set-113
  65,  66,  67,  68,  69,  70,  71,  72, 145, 146, 147, 148, 149, 150, 151, 152
 385, 386, 387, 388, 389, 390, 391, 392, 465, 466, 467, 468, 469, 470, 471, 472
 705, 706, 707, 708, 709, 710, 711, 712, 785, 786, 787, 788, 789, 790, 791, 792
*Elset, elset=Set-114
 4873, 4874, 4875, 4876, 4877, 4878, 4879, 4880, 4953, 4954, 4955, 4956, 4957, 4958, 4959, 4960
 5193, 5194, 5195, 5196, 5197, 5198, 5199, 5200, 5273, 5274, 5275, 5276, 5277, 5278, 5279, 5280
 5513, 5514, 5515, 5516, 5517, 5518, 5519, 5520, 5593, 5594, 5595, 5596, 5597, 5598, 5599, 5600
*Elset, elset=Set-115
 3913, 3914, 3915, 3916, 3917, 3918, 3919, 3920, 3993, 3994, 3995, 3996, 3997, 3998, 3999, 4000
 4233, 4234, 4235, 4236, 4237, 4238, 4239, 4240, 4313, 4314, 4315, 4316, 4317, 4318, 4319, 4320
 4553, 4554, 4555, 4556, 4557, 4558, 4559, 4560, 4633, 4634, 4635, 4636, 4637, 4638, 4639, 4640
*Elset, elset=Set-116
 2953, 2954, 2955, 2956, 2957, 2958, 2959, 2960, 3033, 3034, 3035, 3036, 3037, 3038, 3039, 3040
 3273, 3274, 3275, 3276, 3277, 3278, 3279, 3280, 3353, 3354, 3355, 3356, 3357, 3358, 3359, 3360
 3593, 3594, 3595, 3596, 3597, 3598, 3599, 3600, 3673, 3674, 3675, 3676, 3677, 3678, 3679, 3680
*Elset, elset=Set-117
 1993, 1994, 1995, 1996, 1997, 1998, 1999, 2000, 2073, 2074, 2075, 2076, 2077, 2078, 2079, 2080
 2313, 2314, 2315, 2316, 2317, 2318, 2319, 2320, 2393, 2394, 2395, 2396, 2397, 2398, 2399, 2400
 2633, 2634, 2635, 2636, 2637, 2638, 2639, 2640, 2713, 2714, 2715, 2716, 2717, 2718, 2719, 2720
*Elset, elset=Set-118
 1033, 1034, 1035, 1036, 1037, 1038, 1039, 1040, 1113, 1114, 1115, 1116, 1117, 1118, 1119, 1120
 1353, 1354, 1355, 1356, 1357, 1358, 1359, 1360, 1433, 1434, 1435, 1436, 1437, 1438, 1439, 1440
 1673, 1674, 1675, 1676, 1677, 1678, 1679, 1680, 1753, 1754, 1755, 1756, 1757, 1758, 1759, 1760
*Elset, elset=Set-119
  73,  74,  75,  76,  77,  78,  79,  80, 153, 154, 155, 156, 157, 158, 159, 160
 393, 394, 395, 396, 397, 398, 399, 400, 473, 474, 475, 476, 477, 478, 479, 480
 713, 714, 715, 716, 717, 718, 719, 720, 793, 794, 795, 796, 797, 798, 799, 800
** Section: Section-1
*Solid Section, elset=Set-65, material=Material-active
,
** Section: Section-1
*Solid Section, elset=Set-71, material=Material-active
,
** Section: Section-1
*Solid Section, elset=Set-77, material=Material-active
,
** Section: Section-1
*Solid Section, elset=Set-83, material=Material-active
,
** Section: Section-1
*Solid Section, elset=Set-89, material=Material-active
,
** Section: Section-1
*Solid Section, elset=Set-95, material=Material-active
,
** Section: Section-1
*Solid Section, elset=Set-101, material=Material-active
,
** Section: Section-1
*Solid Section, elset=Set-107, material=Material-active
,
** Section: Section-2
*Solid Section, elset=Set-113, material=Material-passive
,
** Section: Section-2
*Solid Section, elset=Set-119, material=Material-passive
,
** Section: Section-2
*Solid Section, elset=Set-5, material=Material-passive
,
** Section: Section-1
*Solid Section, elset=Set-11, material=Material-active
,
** Section: Section-2
*Solid Section, elset=Set-17, material=Material-passive
,
** Section: Section-2
*Solid Section, elset=Set-23, material=Material-passive
,
** Section: Section-2
*Solid Section, elset=Set-29, material=Material-passive
,
** Section: Section-1
*Solid Section, elset=Set-35, material=Material-active
,
** Section: Section-2
*Solid Section, elset=Set-41, material=Material-passive
,
** Section: Section-1
*Solid Section, elset=Set-47, material=Material-active
,
** Section: Section-2
*Solid Section, elset=Set-53, material=Material-passive
,
** Section: Section-2
*Solid Section, elset=Set-59, material=Material-passive
,
** Section: Section-1
*Solid Section, elset=Set-64, material=Material-active
,
** Section: Section-2
*Solid Section, elset=Set-70, material=Material-passive
,
** Section: Section-2
*Solid Section, elset=Set-76, material=Material-passive
,
** Section: Section-1
*Solid Section, elset=Set-82, material=Material-active
,
** Section: Section-1
*Solid Section, elset=Set-88, material=Material-active
,
** Section: Section-1
*Solid Section, elset=Set-94, material=Material-active
,
** Section: Section-1
*Solid Section, elset=Set-100, material=Material-active
,
** Section: Section-2
*Solid Section, elset=Set-106, material=Material-passive
,
** Section: Section-1
*Solid Section, elset=Set-112, material=Material-active
,
** Section: Section-2
*Solid Section, elset=Set-118, material=Material-passive
,
** Section: Section-2
*Solid Section, elset=Set-4, material=Material-passive
,
** Section: Section-2
*Solid Section, elset=Set-10, material=Material-passive
,
** Section: Section-1
*Solid Section, elset=Set-16, material=Material-active
,
** Section: Section-2
*Solid Section, elset=Set-22, material=Material-passive
,
** Section: Section-1
*Solid Section, elset=Set-28, material=Material-active
,
** Section: Section-2
*Solid Section, elset=Set-34, material=Material-passive
,
** Section: Section-1
*Solid Section, elset=Set-40, material=Material-active
,
** Section: Section-2
*Solid Section, elset=Set-46, material=Material-passive
,
** Section: Section-2
*Solid Section, elset=Set-52, material=Material-passive
,
** Section: Section-2
*Solid Section, elset=Set-58, material=Material-passive
,
** Section: Section-2
*Solid Section, elset=Set-63, material=Material-passive
,
** Section: Section-1
*Solid Section, elset=Set-69, material=Material-active
,
** Section: Section-1
*Solid Section, elset=Set-75, material=Material-active
,
** Section: Section-1
*Solid Section, elset=Set-81, material=Material-active
,
** Section: Section-1
*Solid Section, elset=Set-87, material=Material-active
,
** Section: Section-1
*Solid Section, elset=Set-93, material=Material-active
,
** Section: Section-1
*Solid Section, elset=Set-99, material=Material-active
,
** Section: Section-1
*Solid Section, elset=Set-105, material=Material-active
,
** Section: Section-2
*Solid Section, elset=Set-111, material=Material-passive
,
** Section: Section-1
*Solid Section, elset=Set-117, material=Material-active
,
** Section: Section-2
*Solid Section, elset=Set-3, material=Material-passive
,
** Section: Section-2
*Solid Section, elset=Set-9, material=Material-passive
,
** Section: Section-2
*Solid Section, elset=Set-15, material=Material-passive
,
** Section: Section-1
*Solid Section, elset=Set-21, material=Material-active
,
** Section: Section-1
*Solid Section, elset=Set-27, material=Material-active
,
** Section: Section-2
*Solid Section, elset=Set-33, material=Material-passive
,
** Section: Section-1
*Solid Section, elset=Set-39, material=Material-active
,
** Section: Section-2
*Solid Section, elset=Set-45, material=Material-passive
,
** Section: Section-2
*Solid Section, elset=Set-51, material=Material-passive
,
** Section: Section-2
*Solid Section, elset=Set-57, material=Material-passive
,
** Section: Section-1
*Solid Section, elset=Set-62, material=Material-active
,
** Section: Section-1
*Solid Section, elset=Set-68, material=Material-active
,
** Section: Section-1
*Solid Section, elset=Set-74, material=Material-active
,
** Section: Section-1
*Solid Section, elset=Set-80, material=Material-active
,
** Section: Section-1
*Solid Section, elset=Set-86, material=Material-active
,
** Section: Section-1
*Solid Section, elset=Set-92, material=Material-active
,
** Section: Section-2
*Solid Section, elset=Set-98, material=Material-passive
,
** Section: Section-1
*Solid Section, elset=Set-104, material=Material-active
,
** Section: Section-1
*Solid Section, elset=Set-110, material=Material-active
,
** Section: Section-2
*Solid Section, elset=Set-116, material=Material-passive
,
** Section: Section-1
*Solid Section, elset=Set-2, material=Material-active
,
** Section: Section-1
*Solid Section, elset=Set-8, material=Material-active
,
** Section: Section-1
*Solid Section, elset=Set-14, material=Material-active
,
** Section: Section-1
*Solid Section, elset=Set-20, material=Material-active
,
** Section: Section-2
*Solid Section, elset=Set-26, material=Material-passive
,
** Section: Section-1
*Solid Section, elset=Set-32, material=Material-active
,
** Section: Section-1
*Solid Section, elset=Set-38, material=Material-active
,
** Section: Section-2
*Solid Section, elset=Set-44, material=Material-passive
,
** Section: Section-1
*Solid Section, elset=Set-50, material=Material-active
,
** Section: Section-2
*Solid Section, elset=Set-56, material=Material-passive
,
** Section: Section-1
*Solid Section, elset=Set-61, material=Material-active
,
** Section: Section-1
*Solid Section, elset=Set-67, material=Material-active
,
** Section: Section-1
*Solid Section, elset=Set-73, material=Material-active
,
** Section: Section-1
*Solid Section, elset=Set-79, material=Material-active
,
** Section: Section-1
*Solid Section, elset=Set-85, material=Material-active
,
** Section: Section-2
*Solid Section, elset=Set-91, material=Material-passive
,
** Section: Section-1
*Solid Section, elset=Set-97, material=Material-active
,
** Section: Section-1
*Solid Section, elset=Set-103, material=Material-active
,
** Section: Section-2
*Solid Section, elset=Set-109, material=Material-passive
,
** Section: Section-1
*Solid Section, elset=Set-115, material=Material-active
,
** Section: Section-2
*Solid Section, elset=Set-1, material=Material-passive
,
** Section: Section-2
*Solid Section, elset=Set-7, material=Material-passive
,
** Section: Section-1
*Solid Section, elset=Set-13, material=Material-active
,
** Section: Section-1
*Solid Section, elset=Set-19, material=Material-active
,
** Section: Section-1
*Solid Section, elset=Set-25, material=Material-active
,
** Section: Section-2
*Solid Section, elset=Set-31, material=Material-passive
,
** Section: Section-1
*Solid Section, elset=Set-37, material=Material-active
,
** Section: Section-2
*Solid Section, elset=Set-43, material=Material-passive
,
** Section: Section-2
*Solid Section, elset=Set-49, material=Material-passive
,
** Section: Section-1
*Solid Section, elset=Set-55, material=Material-active
,
** Section: Section-1
*Solid Section, elset=Set-60, material=Material-active
,
** Section: Section-1
*Solid Section, elset=Set-66, material=Material-active
,
** Section: Section-1
*Solid Section, elset=Set-72, material=Material-active
,
** Section: Section-2
*Solid Section, elset=Set-78, material=Material-passive
,
** Section: Section-1
*Solid Section, elset=Set-84, material=Material-active
,
** Section: Section-1
*Solid Section, elset=Set-90, material=Material-active
,
** Section: Section-2
*Solid Section, elset=Set-96, material=Material-passive
,
** Section: Section-1
*Solid Section, elset=Set-102, material=Material-active
,
** Section: Section-1
*Solid Section, elset=Set-108, material=Material-active
,
** Section: Section-1
*Solid Section, elset=Set-114, material=Material-active
,
** Section: Section-2
*Solid Section, elset=Set-0, material=Material-passive
,
** Section: Section-2
*Solid Section, elset=Set-6, material=Material-passive
,
** Section: Section-2
*Solid Section, elset=Set-12, material=Material-passive
,
** Section: Section-2
*Solid Section, elset=Set-18, material=Material-passive
,
** Section: Section-2
*Solid Section, elset=Set-24, material=Material-passive
,
** Section: Section-1
*Solid Section, elset=Set-30, material=Material-active
,
** Section: Section-2
*Solid Section, elset=Set-36, material=Material-passive
,
** Section: Section-2
*Solid Section, elset=Set-42, material=Material-passive
,
** Section: Section-1
*Solid Section, elset=Set-48, material=Material-active
,
** Section: Section-1
*Solid Section, elset=Set-54, material=Material-active
,
*End Part
**  
**
** ASSEMBLY
**
*Assembly, name=Assembly
**  
*Instance, name=Part-1-1, part=Part-1
*End Instance
**  
*Nset, nset=_PickedSet24, internal, instance=Part-1-1, generate
    1,  7695,     1
*Elset, elset=_PickedSet24, internal, instance=Part-1-1, generate
    1,  5760,     1
*Nset, nset=_PickedSet25, internal, instance=Part-1-1
    1,  325, 7291, 7615
*End Assembly
** 
** MATERIALS
** 
*Material, name=Material-active
*Density
 1e-06,
*Expansion
 0.001,
*Hyperelastic, neo hooke
 0.1, 0.002
*Material, name=Material-passive
*Density
 1e-06,
*Expansion
0.,
*Hyperelastic, neo hooke
 0.1, 0.002
** 
** BOUNDARY CONDITIONS
** 
** Name: BC-1 Type: /
*Boundary
_PickedSet25, 1, 1
_PickedSet25, 2, 2
_PickedSet25, 3, 3
** 
** PREDEFINED FIELDS
** 
** Name: Predefined Field-1   Type: Temperature
*Initial Conditions, type=TEMPERATURE
_PickedSet24, 25.
** ----------------------------------------------------------------
** 
** STEP: Step-1
** 
*Step, name=Step-1, nlgeom=YES, inc=10000
*Static
0.1, 6., 1e-05, 0.5
** 
** PREDEFINED FIELDS
** 
** Name: Predefined Field-1   Type: Temperature
*Temperature
_PickedSet24, 85.
** 
** OUTPUT REQUESTS
** 
*Restart, write, frequency=0
** 
** FIELD OUTPUT: F-Output-1
** 
*Output, field, number interval=60
*Node Output
NT, U
*Element Output, directions=YES
S, TEMP
** 
** HISTORY OUTPUT: H-Output-1
** 
*Output, history, variable=PRESELECT
*End Step
